# 
!wB97X-D3 def2-TZVP def2/J RIJCOSX Grid5 FinalGrid6 TightSCF
%pal 
 nprocs 24
end
%tddft
  Mode sTDDFT
  nroots 2
  Ethresh 10.0
  maxcore 5000
  triplets true
end
* xyz 0 1 
C 4.28948520 2.15326944 2.27863033
C 3.68051306 1.22439068 1.43895779
C 4.48500923 0.32007921 0.71953731
C 5.89762449 0.40092370 0.87354781
C 6.51349356 1.33146750 1.72449506
C 5.68692802 2.20569079 2.42547158
C 4.23336053 -0.74063420 -0.24359051
C 5.51576521 -1.22998266 -0.63323552
N 6.49597555 -0.54523645 0.06007162
C 5.69358447 -2.23590351 -1.59429456
C 4.54955987 -2.75642700 -2.19556291
C 3.27690658 -2.29583397 -1.83648900
C 3.07971467 -1.30546204 -0.85467976
H 2.40628939 -2.73751348 -2.31602325
H 7.49320503 -0.68982512 -0.04003630
H 4.64137180 -3.53187365 -2.95050738
H 2.59863077 1.20057692 1.34715267
H 7.59466023 1.37005801 1.82698669
H 6.12749879 2.94067793 3.09389753
H 3.67288518 2.85253622 2.83673340
S -3.14281826 0.28906284 0.77788311
C -2.10945998 -0.33037386 -0.51882612
N -2.77210763 -0.61347219 -1.63423303
N -4.11003009 -0.36807398 -1.54687455
C -4.49215925 0.10571794 -0.36696680
C -0.68397241 -0.50384856 -0.36165593
N -0.02773569 -0.22413964 0.75731480
N 1.31429452 -0.46757184 0.67189287
C 1.70596108 -0.92880781 -0.50695358
S 0.35572000 -1.11801828 -1.65289455
N -9.04581792 0.35529709 -1.74982512
C -8.28349333 0.60965570 -0.66984080
C -6.93070057 0.27719757 -0.99902882
N -6.91223777 -0.16813163 -2.26641955
O -8.19417530 -0.11058192 -2.69217576
C -5.87088724 0.44147558 -0.04012021
C -6.24911944 0.93601807 1.20252756
C -7.59749589 1.26462187 1.52271254
C -8.62523875 1.11412069 0.61796702
H -7.80796712 1.64595823 2.51836205
H -5.48878492 1.08069092 1.96755824
H 6.68538083 -2.58635330 -1.86564594
H -9.64951652 1.36847822 0.87477998
*
$new_job
# 
!wB97X-D3 def2-TZVP def2/J RIJCOSX Grid5 FinalGrid6 TightSCF
%pal 
 nprocs 24
end
%elprop
   dipole     true
   quadrupole true
end
%tddft
  Mode sTDDFT
  nroots 2
  Ethresh 10.0
  maxcore 5000
end
* xyz 0 1 
C 4.28948520 2.15326944 2.27863033
C 3.68051306 1.22439068 1.43895779
C 4.48500923 0.32007921 0.71953731
C 5.89762449 0.40092370 0.87354781
C 6.51349356 1.33146750 1.72449506
C 5.68692802 2.20569079 2.42547158
C 4.23336053 -0.74063420 -0.24359051
C 5.51576521 -1.22998266 -0.63323552
N 6.49597555 -0.54523645 0.06007162
C 5.69358447 -2.23590351 -1.59429456
C 4.54955987 -2.75642700 -2.19556291
C 3.27690658 -2.29583397 -1.83648900
C 3.07971467 -1.30546204 -0.85467976
H 2.40628939 -2.73751348 -2.31602325
H 7.49320503 -0.68982512 -0.04003630
H 4.64137180 -3.53187365 -2.95050738
H 2.59863077 1.20057692 1.34715267
H 7.59466023 1.37005801 1.82698669
H 6.12749879 2.94067793 3.09389753
H 3.67288518 2.85253622 2.83673340
S -3.14281826 0.28906284 0.77788311
C -2.10945998 -0.33037386 -0.51882612
N -2.77210763 -0.61347219 -1.63423303
N -4.11003009 -0.36807398 -1.54687455
C -4.49215925 0.10571794 -0.36696680
C -0.68397241 -0.50384856 -0.36165593
N -0.02773569 -0.22413964 0.75731480
N 1.31429452 -0.46757184 0.67189287
C 1.70596108 -0.92880781 -0.50695358
S 0.35572000 -1.11801828 -1.65289455
N -9.04581792 0.35529709 -1.74982512
C -8.28349333 0.60965570 -0.66984080
C -6.93070057 0.27719757 -0.99902882
N -6.91223777 -0.16813163 -2.26641955
O -8.19417530 -0.11058192 -2.69217576
C -5.87088724 0.44147558 -0.04012021
C -6.24911944 0.93601807 1.20252756
C -7.59749589 1.26462187 1.52271254
C -8.62523875 1.11412069 0.61796702
H -7.80796712 1.64595823 2.51836205
H -5.48878492 1.08069092 1.96755824
H 6.68538083 -2.58635330 -1.86564594
H -9.64951652 1.36847822 0.87477998
*
