# 
!wB97X-D3 def2-TZVP def2/J RIJCOSX Grid5 FinalGrid6 TightSCF
%pal 
 nprocs 24
end
%tddft
  Mode sTDDFT
  nroots 2
  Ethresh 10.0
  maxcore 5000
  triplets true
end
* xyz 0 1 
C 6.06098968 1.37641968 -0.26120381
C 4.78689621 0.83041685 -0.12937917
C 4.10210474 0.97445415 1.09175117
C 4.73587691 1.69494853 2.14286462
C 6.02244741 2.24104770 2.01514387
C 6.67571155 2.06807295 0.79768044
C 2.79249968 0.58242210 1.58797354
C 2.69770616 1.11463529 2.90844924
N 3.87967847 1.75798293 3.22802189
C 1.54871669 0.99052722 3.70269743
C 0.45440128 0.32933811 3.14838196
C 0.51815026 -0.20270046 1.85443963
C 1.67332578 -0.11147967 1.05696842
H -0.34554374 -0.72371345 1.44963738
H 4.06970743 2.23469886 4.10095840
H -0.45956413 0.21958253 3.72661464
H 4.33295128 0.30121078 -0.96157716
H 6.48692544 2.78382599 2.83404119
H 7.67289618 2.47798201 0.66103135
H 6.59449080 1.26707506 -1.20151441
C -3.24390253 -1.35142668 -2.61438733
N -2.02955372 -1.18584226 -2.04244251
C -0.96586232 -1.73060169 -2.67634402
N -1.06337477 -2.40849738 -3.84657203
C -2.30620067 -2.51765574 -4.35776822
N -3.41664520 -2.01872022 -3.78660171
C 0.36884706 -1.57486500 -2.03319450
N 0.41920600 -0.91491528 -0.85555971
C 1.63289105 -0.78436326 -0.26335308
N 2.76523431 -1.30174348 -0.80820552
C 2.62640656 -1.94339963 -1.98364681
N 1.46112707 -2.10634981 -2.63885819
H 3.53264039 -2.36948752 -2.43996612
H -2.41999435 -3.05761948 -5.30960315
C -4.45430753 -0.77797077 -1.96106280
N -5.56522374 -0.74559303 -2.71369130
C -6.71025621 -0.21671440 -2.20374200
C -6.80407130 0.31124214 -0.92867082
C -5.65900071 0.28790312 -0.09159754
C -4.45297711 -0.27824715 -0.60923534
N -5.71925581 0.79899177 1.18544785
C -4.60628255 0.73294994 1.90309944
C -3.40929934 0.14669193 1.39920596
N -3.32754241 -0.35499351 0.17448444
H -7.58162729 -0.21806634 -2.86601015
H -4.63367804 1.13976240 2.92162916
H -2.51375546 0.09066613 2.03077230
H 1.51128498 1.40439079 4.70669358
H -7.73499445 0.73752723 -0.56400050
*
$new_job
# 
!wB97X-D3 def2-TZVP def2/J RIJCOSX Grid5 FinalGrid6 TightSCF
%pal 
 nprocs 24
end
%elprop
   dipole     true
   quadrupole true
end
%tddft
  Mode sTDDFT
  nroots 2
  Ethresh 10.0
  maxcore 5000
end
* xyz 0 1 
C 6.06098968 1.37641968 -0.26120381
C 4.78689621 0.83041685 -0.12937917
C 4.10210474 0.97445415 1.09175117
C 4.73587691 1.69494853 2.14286462
C 6.02244741 2.24104770 2.01514387
C 6.67571155 2.06807295 0.79768044
C 2.79249968 0.58242210 1.58797354
C 2.69770616 1.11463529 2.90844924
N 3.87967847 1.75798293 3.22802189
C 1.54871669 0.99052722 3.70269743
C 0.45440128 0.32933811 3.14838196
C 0.51815026 -0.20270046 1.85443963
C 1.67332578 -0.11147967 1.05696842
H -0.34554374 -0.72371345 1.44963738
H 4.06970743 2.23469886 4.10095840
H -0.45956413 0.21958253 3.72661464
H 4.33295128 0.30121078 -0.96157716
H 6.48692544 2.78382599 2.83404119
H 7.67289618 2.47798201 0.66103135
H 6.59449080 1.26707506 -1.20151441
C -3.24390253 -1.35142668 -2.61438733
N -2.02955372 -1.18584226 -2.04244251
C -0.96586232 -1.73060169 -2.67634402
N -1.06337477 -2.40849738 -3.84657203
C -2.30620067 -2.51765574 -4.35776822
N -3.41664520 -2.01872022 -3.78660171
C 0.36884706 -1.57486500 -2.03319450
N 0.41920600 -0.91491528 -0.85555971
C 1.63289105 -0.78436326 -0.26335308
N 2.76523431 -1.30174348 -0.80820552
C 2.62640656 -1.94339963 -1.98364681
N 1.46112707 -2.10634981 -2.63885819
H 3.53264039 -2.36948752 -2.43996612
H -2.41999435 -3.05761948 -5.30960315
C -4.45430753 -0.77797077 -1.96106280
N -5.56522374 -0.74559303 -2.71369130
C -6.71025621 -0.21671440 -2.20374200
C -6.80407130 0.31124214 -0.92867082
C -5.65900071 0.28790312 -0.09159754
C -4.45297711 -0.27824715 -0.60923534
N -5.71925581 0.79899177 1.18544785
C -4.60628255 0.73294994 1.90309944
C -3.40929934 0.14669193 1.39920596
N -3.32754241 -0.35499351 0.17448444
H -7.58162729 -0.21806634 -2.86601015
H -4.63367804 1.13976240 2.92162916
H -2.51375546 0.09066613 2.03077230
H 1.51128498 1.40439079 4.70669358
H -7.73499445 0.73752723 -0.56400050
*
