# 
!wB97X-D3 def2-TZVP def2/J RIJCOSX Grid5 FinalGrid6 TightSCF
%pal 
 nprocs 24
end
%tddft
  Mode sTDDFT
  nroots 2
  Ethresh 10.0
  maxcore 5000
  triplets true
end
* xyz 0 1 
C 6.32302075 -1.27066841 -2.28365899
C 5.43896463 -0.76570270 -1.33375447
C 5.92588681 0.10176532 -0.33727662
C 7.30913960 0.43653852 -0.34895493
C 8.20352227 -0.07641990 -1.30085117
C 7.68862242 -0.93633059 -2.26756968
C 5.33243679 0.83103351 0.77298641
C 6.39298509 1.58335045 1.36043178
N 7.56942384 1.31925751 0.68468979
C 6.20667173 2.45854892 2.44051085
C 4.91203120 2.59553395 2.93708484
C 3.84956067 1.87258299 2.38110490
C 4.02406982 0.97022539 1.31375632
H 2.85560704 1.99388294 2.80578385
H 8.46966203 1.73354822 0.89267557
H 4.72083795 3.26814871 3.76831349
H 4.38971920 -1.04424842 -1.36416756
H 9.25638960 0.19235243 -1.28527457
H 8.35074001 -1.35362293 -3.02165105
H 5.95222609 -1.94146699 -3.05377890
S -2.02808764 0.13058397 0.50633787
C -3.14749338 -1.07691279 -0.16380245
N -2.52718090 -2.14672617 -0.65751816
N -1.17059713 -2.09390272 -0.54717730
C -0.72665342 -0.98601293 0.03191332
C 0.66892605 -0.68438318 0.26702925
N 1.67430637 -1.48498936 -0.06099470
N 2.90007878 -0.97519609 0.26359244
C 2.86031854 0.21758851 0.83604523
S 1.19317590 0.82193022 1.03955757
S -9.64971559 -2.47699499 -1.26322993
C -8.45837325 -1.36861625 -0.63813933
C -9.04567092 -0.22617360 -0.10632269
C -10.46593572 -0.23395371 -0.19819378
C -10.94002585 -1.37999420 -0.79756790
C -7.02782574 -1.26688416 -0.49887178
C -6.72289084 -0.05577466 0.12240065
C -7.98842387 0.71115552 0.42539493
C -5.33534836 0.14579580 0.30868139
C -4.57673964 -0.91809496 -0.17342984
S -5.59853459 -2.18844102 -0.86863190
H -4.89018828 1.02080630 0.77146156
H -11.11200345 0.56120360 0.15726731
H -8.10762996 0.90909815 1.49827127
H -8.01035265 1.68964567 -0.07112397
H 7.03792882 3.01464575 2.86467259
H -11.97708080 -1.62771160 -0.98502153
*
$new_job
# 
!wB97X-D3 def2-TZVP def2/J RIJCOSX Grid5 FinalGrid6 TightSCF
%pal 
 nprocs 24
end
%elprop
   dipole     true
   quadrupole true
end
%tddft
  Mode sTDDFT
  nroots 2
  Ethresh 10.0
  maxcore 5000
end
* xyz 0 1 
C 6.32302075 -1.27066841 -2.28365899
C 5.43896463 -0.76570270 -1.33375447
C 5.92588681 0.10176532 -0.33727662
C 7.30913960 0.43653852 -0.34895493
C 8.20352227 -0.07641990 -1.30085117
C 7.68862242 -0.93633059 -2.26756968
C 5.33243679 0.83103351 0.77298641
C 6.39298509 1.58335045 1.36043178
N 7.56942384 1.31925751 0.68468979
C 6.20667173 2.45854892 2.44051085
C 4.91203120 2.59553395 2.93708484
C 3.84956067 1.87258299 2.38110490
C 4.02406982 0.97022539 1.31375632
H 2.85560704 1.99388294 2.80578385
H 8.46966203 1.73354822 0.89267557
H 4.72083795 3.26814871 3.76831349
H 4.38971920 -1.04424842 -1.36416756
H 9.25638960 0.19235243 -1.28527457
H 8.35074001 -1.35362293 -3.02165105
H 5.95222609 -1.94146699 -3.05377890
S -2.02808764 0.13058397 0.50633787
C -3.14749338 -1.07691279 -0.16380245
N -2.52718090 -2.14672617 -0.65751816
N -1.17059713 -2.09390272 -0.54717730
C -0.72665342 -0.98601293 0.03191332
C 0.66892605 -0.68438318 0.26702925
N 1.67430637 -1.48498936 -0.06099470
N 2.90007878 -0.97519609 0.26359244
C 2.86031854 0.21758851 0.83604523
S 1.19317590 0.82193022 1.03955757
S -9.64971559 -2.47699499 -1.26322993
C -8.45837325 -1.36861625 -0.63813933
C -9.04567092 -0.22617360 -0.10632269
C -10.46593572 -0.23395371 -0.19819378
C -10.94002585 -1.37999420 -0.79756790
C -7.02782574 -1.26688416 -0.49887178
C -6.72289084 -0.05577466 0.12240065
C -7.98842387 0.71115552 0.42539493
C -5.33534836 0.14579580 0.30868139
C -4.57673964 -0.91809496 -0.17342984
S -5.59853459 -2.18844102 -0.86863190
H -4.89018828 1.02080630 0.77146156
H -11.11200345 0.56120360 0.15726731
H -8.10762996 0.90909815 1.49827127
H -8.01035265 1.68964567 -0.07112397
H 7.03792882 3.01464575 2.86467259
H -11.97708080 -1.62771160 -0.98502153
*
