# 
!wB97X-D3 def2-TZVP def2/J RIJCOSX Grid5 FinalGrid6 TightSCF
%pal 
 nprocs 24
end
%tddft
  Mode sTDDFT
  nroots 2
  Ethresh 10.0
  maxcore 5000
  triplets true
end
* xyz 0 1 
C 8.85380360 1.65572954 -2.24746579
C 8.00813300 0.84581577 -1.49368857
C 8.48199150 -0.39616158 -1.02955437
C 9.80800249 -0.78424069 -1.37183839
C 10.66401065 0.03246662 -2.12639127
C 10.16717621 1.26026312 -2.55593904
C 7.91404564 -1.49615675 -0.26459812
C 8.92467378 -2.50116627 -0.21038943
N 10.05559893 -2.04683028 -0.86230816
C 8.73338287 -3.74760353 0.40436126
C 7.48537227 -3.99768573 0.97035544
C 6.47453432 -3.02810682 0.93996664
C 6.66113052 -1.76395691 0.34972962
H 5.52036321 -3.24736774 1.41146142
H 10.91476346 -2.57011052 -0.97808885
H 7.29207286 -4.95286773 1.45009658
H 6.99795277 1.17788602 -1.27790418
H 11.67395575 -0.28588364 -2.37043750
H 10.80051895 1.91973095 -3.14323214
H 8.49235412 2.61549136 -2.60605942
C 0.06108663 0.93841115 0.92839538
N 0.60438812 2.16442253 0.92921261
O 1.95164523 2.00583846 0.82074808
C 2.25685355 0.70091313 0.75339199
C 1.09549192 -0.04208025 0.81893541
C 3.65459834 0.31321068 0.62497998
N 4.64509842 1.21490785 0.55582941
O 5.80209612 0.51100236 0.43681122
C 5.55233502 -0.80684940 0.42668320
C 4.18935304 -1.00561483 0.55416888
H 3.65305570 -1.94316253 0.57309528
H 1.00579044 -1.11824169 0.78280450
C -3.15028258 -0.96115490 1.51504919
C -1.80790951 -0.62524604 1.40930919
C -1.38564364 0.67827945 1.02992785
C -2.36037244 1.64802819 0.73599553
C -3.75815349 1.34441795 0.87354742
C -4.16120815 0.02697943 1.26636680
C -4.77266741 2.32215367 0.58475565
C -6.11977066 1.98788358 0.70729209
C -6.51190737 0.68912876 1.08449474
C -5.55781395 -0.28966136 1.35000956
N -5.96225585 -1.55945107 1.82588256
C -6.70046775 -2.36978885 1.14474162
C -7.13257932 -3.67432076 1.76891658
N -4.41154634 3.66217684 0.31638972
C -4.79750214 4.30794588 -0.73310257
C -5.56928667 3.69672757 -1.88890970
N -1.98090320 2.96540456 0.39597585
C -1.47440271 3.28982222 -0.74471737
C -1.26735478 2.31434639 -1.88789317
N -3.52293768 -2.24239028 1.98987154
C -3.19410588 -3.33925853 1.39422309
C -3.58273317 -4.65881766 2.01572038
C -2.45900693 -3.41723119 0.06779090
C -7.15418360 -2.12948944 -0.28389006
C -4.44058504 5.76770850 -0.87257281
C -1.03539129 4.71120640 -0.98533843
H -1.05843023 -1.37418799 1.64832611
H -6.87620725 2.74599728 0.52559757
H -7.02670574 -3.03095817 -0.88145616
H -6.59589864 -1.31823608 -0.74349759
H -8.21322742 -1.87166470 -0.31063984
H -6.75827363 -4.51940630 1.19014100
H -8.21970863 -3.75485852 1.78337603
H -6.76316724 -3.76164546 2.78629538
H -1.41934708 -3.70717955 0.22278217
H -2.46954261 -2.45981778 -0.44639506
H -2.91138282 -4.17063454 -0.57529861
H -4.23452080 -5.22159945 1.34654731
H -4.10138311 -4.50886697 2.95789065
H -2.70215050 -5.27591569 2.19564468
H -0.21785758 2.02434704 -1.94597814
H -1.53523843 2.76829264 -2.84057971
H -1.85849740 1.41305825 -1.74528452
H -1.27986720 5.34414780 -0.13759889
H 0.04196880 4.75091452 -1.14778033
H -1.51024917 5.11942693 -1.87781743
H -3.86163919 6.11133768 -0.02065221
H -5.34110152 6.37762732 -0.95066025
H -3.86106998 5.93906563 -1.78014007
H -5.14751320 4.01934625 -2.83980440
H -6.60987366 4.02167150 -1.87099880
H -5.55222662 2.61097799 -1.84468737
H 9.52543430 -4.49065408 0.42861580
H -7.56708128 0.45171248 1.18488487
*
$new_job
# 
!wB97X-D3 def2-TZVP def2/J RIJCOSX Grid5 FinalGrid6 TightSCF
%pal 
 nprocs 24
end
%elprop
   dipole     true
   quadrupole true
end
%tddft
  Mode sTDDFT
  nroots 2
  Ethresh 10.0
  maxcore 5000
end
* xyz 0 1 
C 8.85380360 1.65572954 -2.24746579
C 8.00813300 0.84581577 -1.49368857
C 8.48199150 -0.39616158 -1.02955437
C 9.80800249 -0.78424069 -1.37183839
C 10.66401065 0.03246662 -2.12639127
C 10.16717621 1.26026312 -2.55593904
C 7.91404564 -1.49615675 -0.26459812
C 8.92467378 -2.50116627 -0.21038943
N 10.05559893 -2.04683028 -0.86230816
C 8.73338287 -3.74760353 0.40436126
C 7.48537227 -3.99768573 0.97035544
C 6.47453432 -3.02810682 0.93996664
C 6.66113052 -1.76395691 0.34972962
H 5.52036321 -3.24736774 1.41146142
H 10.91476346 -2.57011052 -0.97808885
H 7.29207286 -4.95286773 1.45009658
H 6.99795277 1.17788602 -1.27790418
H 11.67395575 -0.28588364 -2.37043750
H 10.80051895 1.91973095 -3.14323214
H 8.49235412 2.61549136 -2.60605942
C 0.06108663 0.93841115 0.92839538
N 0.60438812 2.16442253 0.92921261
O 1.95164523 2.00583846 0.82074808
C 2.25685355 0.70091313 0.75339199
C 1.09549192 -0.04208025 0.81893541
C 3.65459834 0.31321068 0.62497998
N 4.64509842 1.21490785 0.55582941
O 5.80209612 0.51100236 0.43681122
C 5.55233502 -0.80684940 0.42668320
C 4.18935304 -1.00561483 0.55416888
H 3.65305570 -1.94316253 0.57309528
H 1.00579044 -1.11824169 0.78280450
C -3.15028258 -0.96115490 1.51504919
C -1.80790951 -0.62524604 1.40930919
C -1.38564364 0.67827945 1.02992785
C -2.36037244 1.64802819 0.73599553
C -3.75815349 1.34441795 0.87354742
C -4.16120815 0.02697943 1.26636680
C -4.77266741 2.32215367 0.58475565
C -6.11977066 1.98788358 0.70729209
C -6.51190737 0.68912876 1.08449474
C -5.55781395 -0.28966136 1.35000956
N -5.96225585 -1.55945107 1.82588256
C -6.70046775 -2.36978885 1.14474162
C -7.13257932 -3.67432076 1.76891658
N -4.41154634 3.66217684 0.31638972
C -4.79750214 4.30794588 -0.73310257
C -5.56928667 3.69672757 -1.88890970
N -1.98090320 2.96540456 0.39597585
C -1.47440271 3.28982222 -0.74471737
C -1.26735478 2.31434639 -1.88789317
N -3.52293768 -2.24239028 1.98987154
C -3.19410588 -3.33925853 1.39422309
C -3.58273317 -4.65881766 2.01572038
C -2.45900693 -3.41723119 0.06779090
C -7.15418360 -2.12948944 -0.28389006
C -4.44058504 5.76770850 -0.87257281
C -1.03539129 4.71120640 -0.98533843
H -1.05843023 -1.37418799 1.64832611
H -6.87620725 2.74599728 0.52559757
H -7.02670574 -3.03095817 -0.88145616
H -6.59589864 -1.31823608 -0.74349759
H -8.21322742 -1.87166470 -0.31063984
H -6.75827363 -4.51940630 1.19014100
H -8.21970863 -3.75485852 1.78337603
H -6.76316724 -3.76164546 2.78629538
H -1.41934708 -3.70717955 0.22278217
H -2.46954261 -2.45981778 -0.44639506
H -2.91138282 -4.17063454 -0.57529861
H -4.23452080 -5.22159945 1.34654731
H -4.10138311 -4.50886697 2.95789065
H -2.70215050 -5.27591569 2.19564468
H -0.21785758 2.02434704 -1.94597814
H -1.53523843 2.76829264 -2.84057971
H -1.85849740 1.41305825 -1.74528452
H -1.27986720 5.34414780 -0.13759889
H 0.04196880 4.75091452 -1.14778033
H -1.51024917 5.11942693 -1.87781743
H -3.86163919 6.11133768 -0.02065221
H -5.34110152 6.37762732 -0.95066025
H -3.86106998 5.93906563 -1.78014007
H -5.14751320 4.01934625 -2.83980440
H -6.60987366 4.02167150 -1.87099880
H -5.55222662 2.61097799 -1.84468737
H 9.52543430 -4.49065408 0.42861580
H -7.56708128 0.45171248 1.18488487
*
