# 
!wB97X-D3 def2-TZVP def2/J RIJCOSX Grid5 FinalGrid6 TightSCF
%pal 
 nprocs 24
end
%tddft
  Mode sTDDFT
  nroots 2
  Ethresh 10.0
  maxcore 5000
  triplets true
end
* xyz 0 1 
C -4.63139903 -1.88683150 3.76975891
C -3.72896602 -1.21133316 2.95219297
C -4.10387331 -0.89211662 1.63380794
C -5.39134313 -1.29465411 1.17953124
C -6.30547576 -1.96995560 2.00305722
C -5.90621714 -2.25703536 3.30584437
C -3.45094501 -0.24261503 0.50815203
C -4.37445387 -0.31487649 -0.57638697
N -5.53762530 -0.92835065 -0.14659846
C -4.08192224 0.16147537 -1.86243886
C -2.81721042 0.70719947 -2.07237096
C -1.88899314 0.78981753 -1.02648891
C -2.17928087 0.34537658 0.27564188
H -0.91406523 1.23146122 -1.21387008
H -6.34748180 -1.11824286 -0.72400586
H -2.54658366 1.07761233 -3.05716005
H -2.74997745 -0.93756151 3.33326128
H -7.28472430 -2.26326520 1.63419337
H -6.58677488 -2.77997982 3.97257003
H -4.34718971 -2.13459836 4.78891105
C 4.10276021 0.70870337 -0.23592221
N 2.79723246 0.67706235 0.12739536
C 2.51614497 0.86888429 1.43615933
N 3.46710375 1.08721204 2.37933585
C 4.73915329 1.10223724 1.93674584
N 5.10710663 0.92082393 0.65532772
C 1.08690820 0.84083414 1.85720927
N 0.15134589 0.59551720 0.91336301
C -1.14549297 0.56735677 1.31430919
N -1.51321293 0.79762878 2.60213976
C -0.51883280 1.04039499 3.47611339
N 0.79017043 1.06696397 3.16247469
H -0.79755575 1.23238616 4.52332179
H 5.53509146 1.27587514 2.67652284
C 5.09183771 0.11781444 -4.38133673
C 6.10456613 0.33568932 -3.42774221
C 5.78915269 0.52890275 -2.07542338
C 4.44524161 0.50464415 -1.66335168
C 3.42302465 0.28791027 -2.60402889
C 3.75050264 0.09639806 -3.95365892
O 7.40579272 0.36147318 -3.81050730
O 2.75370329 -0.11072897 -4.85033100
H 2.38652731 0.26848801 -2.28520899
H 7.48387962 0.21567520 -4.76195338
H 3.11403927 -0.22941300 -5.73839731
H 6.57776210 0.69608136 -1.35002123
H -4.81063436 0.09507449 -2.66582211
H 5.34138404 -0.03151585 -5.43001483
*
$new_job
# 
!wB97X-D3 def2-TZVP def2/J RIJCOSX Grid5 FinalGrid6 TightSCF
%pal 
 nprocs 24
end
%elprop
   dipole     true
   quadrupole true
end
%tddft
  Mode sTDDFT
  nroots 2
  Ethresh 10.0
  maxcore 5000
end
* xyz 0 1 
C -4.63139903 -1.88683150 3.76975891
C -3.72896602 -1.21133316 2.95219297
C -4.10387331 -0.89211662 1.63380794
C -5.39134313 -1.29465411 1.17953124
C -6.30547576 -1.96995560 2.00305722
C -5.90621714 -2.25703536 3.30584437
C -3.45094501 -0.24261503 0.50815203
C -4.37445387 -0.31487649 -0.57638697
N -5.53762530 -0.92835065 -0.14659846
C -4.08192224 0.16147537 -1.86243886
C -2.81721042 0.70719947 -2.07237096
C -1.88899314 0.78981753 -1.02648891
C -2.17928087 0.34537658 0.27564188
H -0.91406523 1.23146122 -1.21387008
H -6.34748180 -1.11824286 -0.72400586
H -2.54658366 1.07761233 -3.05716005
H -2.74997745 -0.93756151 3.33326128
H -7.28472430 -2.26326520 1.63419337
H -6.58677488 -2.77997982 3.97257003
H -4.34718971 -2.13459836 4.78891105
C 4.10276021 0.70870337 -0.23592221
N 2.79723246 0.67706235 0.12739536
C 2.51614497 0.86888429 1.43615933
N 3.46710375 1.08721204 2.37933585
C 4.73915329 1.10223724 1.93674584
N 5.10710663 0.92082393 0.65532772
C 1.08690820 0.84083414 1.85720927
N 0.15134589 0.59551720 0.91336301
C -1.14549297 0.56735677 1.31430919
N -1.51321293 0.79762878 2.60213976
C -0.51883280 1.04039499 3.47611339
N 0.79017043 1.06696397 3.16247469
H -0.79755575 1.23238616 4.52332179
H 5.53509146 1.27587514 2.67652284
C 5.09183771 0.11781444 -4.38133673
C 6.10456613 0.33568932 -3.42774221
C 5.78915269 0.52890275 -2.07542338
C 4.44524161 0.50464415 -1.66335168
C 3.42302465 0.28791027 -2.60402889
C 3.75050264 0.09639806 -3.95365892
O 7.40579272 0.36147318 -3.81050730
O 2.75370329 -0.11072897 -4.85033100
H 2.38652731 0.26848801 -2.28520899
H 7.48387962 0.21567520 -4.76195338
H 3.11403927 -0.22941300 -5.73839731
H 6.57776210 0.69608136 -1.35002123
H -4.81063436 0.09507449 -2.66582211
H 5.34138404 -0.03151585 -5.43001483
*
