# 
!wB97X-D3 def2-TZVP def2/J RIJCOSX Grid5 FinalGrid6 TightSCF
%pal 
 nprocs 24
end
%tddft
  Mode sTDDFT
  nroots 2
  Ethresh 10.0
  maxcore 5000
  triplets true
end
* xyz 0 1 
C -5.26868386 -2.30369629 -1.45803969
C -4.40802910 -1.35867345 -0.90565386
C -4.94977795 -0.26752735 -0.19942154
C -6.36402439 -0.18827694 -0.05939259
C -7.23369793 -1.13618633 -0.62003218
C -6.66391903 -2.19327267 -1.32463364
C -4.39919857 0.87132256 0.51972104
C -5.51558229 1.56194277 1.07787309
N -6.68173568 0.92224204 0.70280820
C -5.38500240 2.69668712 1.89233742
C -4.09459370 3.14412621 2.16599665
C -2.97795089 2.49196727 1.62686564
C -3.09532634 1.36852141 0.78705514
H -1.98628714 2.88098103 1.84165875
H -7.61637703 1.20174409 0.97442202
H -3.94800929 4.01471204 2.79871179
H -3.33564233 -1.47683873 -1.02107207
H -8.31046793 -1.05009727 -0.50181356
H -7.30543293 -2.94759296 -1.77218938
H -4.85455136 -3.14628609 -2.00466342
C 3.79611497 -0.35711285 -0.06536364
N 3.46612331 -0.93717509 -1.22796305
O 2.12581874 -0.78390706 -1.38205992
C 1.61309650 -0.11774117 -0.33602698
C 2.62647687 0.18528735 0.55080649
C 0.18219485 0.15249662 -0.30995077
N -0.63589425 -0.23733005 -1.29866299
O -1.88423922 0.17106243 -0.95052950
C -1.86124267 0.80169522 0.23288098
C -0.55838316 0.83503588 0.69736295
H -0.19231091 1.25759742 1.62163364
H 2.53884596 0.72222532 1.48428007
C 7.70601158 -0.21092488 1.61676800
N 6.64859616 0.15619072 2.33669035
C 5.41471248 0.09655703 1.76080423
C 5.17290445 -0.32513769 0.45372200
C 6.30501768 -0.71647106 -0.33670512
C 7.59769257 -0.65858649 0.26750908
N 6.16173736 -1.12466027 -1.64011821
C 7.26760588 -1.47010940 -2.28590932
C 8.55461368 -1.42427843 -1.67746678
N 8.72960641 -1.02249035 -0.42497764
H 4.57547241 0.40053356 2.39462057
H 7.16473449 -1.79637850 -3.32826015
H 9.44466057 -1.72045090 -2.24574700
H -6.25701429 3.19946589 2.30077929
H 8.69143771 -0.16109172 2.09414559
*
$new_job
# 
!wB97X-D3 def2-TZVP def2/J RIJCOSX Grid5 FinalGrid6 TightSCF
%pal 
 nprocs 24
end
%elprop
   dipole     true
   quadrupole true
end
%tddft
  Mode sTDDFT
  nroots 2
  Ethresh 10.0
  maxcore 5000
end
* xyz 0 1 
C -5.26868386 -2.30369629 -1.45803969
C -4.40802910 -1.35867345 -0.90565386
C -4.94977795 -0.26752735 -0.19942154
C -6.36402439 -0.18827694 -0.05939259
C -7.23369793 -1.13618633 -0.62003218
C -6.66391903 -2.19327267 -1.32463364
C -4.39919857 0.87132256 0.51972104
C -5.51558229 1.56194277 1.07787309
N -6.68173568 0.92224204 0.70280820
C -5.38500240 2.69668712 1.89233742
C -4.09459370 3.14412621 2.16599665
C -2.97795089 2.49196727 1.62686564
C -3.09532634 1.36852141 0.78705514
H -1.98628714 2.88098103 1.84165875
H -7.61637703 1.20174409 0.97442202
H -3.94800929 4.01471204 2.79871179
H -3.33564233 -1.47683873 -1.02107207
H -8.31046793 -1.05009727 -0.50181356
H -7.30543293 -2.94759296 -1.77218938
H -4.85455136 -3.14628609 -2.00466342
C 3.79611497 -0.35711285 -0.06536364
N 3.46612331 -0.93717509 -1.22796305
O 2.12581874 -0.78390706 -1.38205992
C 1.61309650 -0.11774117 -0.33602698
C 2.62647687 0.18528735 0.55080649
C 0.18219485 0.15249662 -0.30995077
N -0.63589425 -0.23733005 -1.29866299
O -1.88423922 0.17106243 -0.95052950
C -1.86124267 0.80169522 0.23288098
C -0.55838316 0.83503588 0.69736295
H -0.19231091 1.25759742 1.62163364
H 2.53884596 0.72222532 1.48428007
C 7.70601158 -0.21092488 1.61676800
N 6.64859616 0.15619072 2.33669035
C 5.41471248 0.09655703 1.76080423
C 5.17290445 -0.32513769 0.45372200
C 6.30501768 -0.71647106 -0.33670512
C 7.59769257 -0.65858649 0.26750908
N 6.16173736 -1.12466027 -1.64011821
C 7.26760588 -1.47010940 -2.28590932
C 8.55461368 -1.42427843 -1.67746678
N 8.72960641 -1.02249035 -0.42497764
H 4.57547241 0.40053356 2.39462057
H 7.16473449 -1.79637850 -3.32826015
H 9.44466057 -1.72045090 -2.24574700
H -6.25701429 3.19946589 2.30077929
H 8.69143771 -0.16109172 2.09414559
*
