# 
!wB97X-D3 def2-TZVP def2/J RIJCOSX Grid5 FinalGrid6 TightSCF
%pal 
 nprocs 24
end
%tddft
  Mode sTDDFT
  nroots 2
  Ethresh 10.0
  maxcore 5000
  triplets true
end
* xyz 0 1 
C -7.31687666 2.41123758 0.78110651
C -6.00390015 2.02860412 0.90473147
C -5.51516925 0.88306251 0.19755469
C -6.42042611 0.14736170 -0.65155446
C -7.78241276 0.58113125 -0.75087490
C -8.21229341 1.68132161 -0.05104655
N -4.21804015 0.51139493 0.33501906
C -3.80002588 -0.58031192 -0.34689492
C -4.70304758 -1.29661322 -1.22319323
N -6.00070928 -0.92805385 -1.36129682
C -4.21452345 -2.41740807 -1.96797395
C -2.90028452 -2.79936691 -1.85239231
C -2.01272098 -2.10742609 -0.98937952
C -2.42530594 -1.02446339 -0.22869272
H -0.98679104 -2.45792410 -0.90990884
H -2.52646139 -3.64921173 -2.41787426
H -4.89651208 -2.95493225 -2.62119658
H -9.24628975 2.00805358 -0.12788357
H -5.32121060 2.58558312 1.54181974
H -7.68631739 3.27941456 1.32100684
S 2.82526094 1.42643594 2.81306640
C 2.09433958 0.55300428 1.47296802
C 3.05938897 0.15691593 0.56826992
C 4.39080942 0.55276949 0.93001747
C 4.41640336 1.25170814 2.12376283
C 0.66603921 0.32942203 1.41213291
C -0.05399618 -0.32858296 0.43526418
C -1.46978837 -0.35553050 0.67685234
C -1.80756229 0.28199698 1.85789426
S -0.40609051 0.91858478 2.67632431
H 0.41098535 -0.75666492 -0.44656061
H 2.81896573 -0.38599188 -0.33930868
H -2.79820019 0.37564323 2.28253635
H 5.29046279 1.64451427 2.62706526
C 7.90002268 -0.35137892 -1.41935248
C 6.69993052 -1.04627226 -1.62189928
C 5.55083277 -0.75550788 -0.86398363
C 5.59022489 0.24598640 0.12530254
C 6.79397450 0.94733295 0.33540389
C 7.93141247 0.64646760 -0.43517291
O 6.65524582 -2.01715012 -2.56991226
O 9.08625159 1.33030849 -0.23046118
H 6.84736475 1.73436755 1.08283547
H 5.77548915 -2.41438963 -2.60381366
H 8.96948444 1.98699629 0.46814342
H 4.63919276 -1.32026974 -1.03789022
H -8.46724668 0.02615081 -1.38714196
H 8.78032089 -0.57861981 -2.00871841
*
$new_job
# 
!wB97X-D3 def2-TZVP def2/J RIJCOSX Grid5 FinalGrid6 TightSCF
%pal 
 nprocs 24
end
%elprop
   dipole     true
   quadrupole true
end
%tddft
  Mode sTDDFT
  nroots 2
  Ethresh 10.0
  maxcore 5000
end
* xyz 0 1 
C -7.31687666 2.41123758 0.78110651
C -6.00390015 2.02860412 0.90473147
C -5.51516925 0.88306251 0.19755469
C -6.42042611 0.14736170 -0.65155446
C -7.78241276 0.58113125 -0.75087490
C -8.21229341 1.68132161 -0.05104655
N -4.21804015 0.51139493 0.33501906
C -3.80002588 -0.58031192 -0.34689492
C -4.70304758 -1.29661322 -1.22319323
N -6.00070928 -0.92805385 -1.36129682
C -4.21452345 -2.41740807 -1.96797395
C -2.90028452 -2.79936691 -1.85239231
C -2.01272098 -2.10742609 -0.98937952
C -2.42530594 -1.02446339 -0.22869272
H -0.98679104 -2.45792410 -0.90990884
H -2.52646139 -3.64921173 -2.41787426
H -4.89651208 -2.95493225 -2.62119658
H -9.24628975 2.00805358 -0.12788357
H -5.32121060 2.58558312 1.54181974
H -7.68631739 3.27941456 1.32100684
S 2.82526094 1.42643594 2.81306640
C 2.09433958 0.55300428 1.47296802
C 3.05938897 0.15691593 0.56826992
C 4.39080942 0.55276949 0.93001747
C 4.41640336 1.25170814 2.12376283
C 0.66603921 0.32942203 1.41213291
C -0.05399618 -0.32858296 0.43526418
C -1.46978837 -0.35553050 0.67685234
C -1.80756229 0.28199698 1.85789426
S -0.40609051 0.91858478 2.67632431
H 0.41098535 -0.75666492 -0.44656061
H 2.81896573 -0.38599188 -0.33930868
H -2.79820019 0.37564323 2.28253635
H 5.29046279 1.64451427 2.62706526
C 7.90002268 -0.35137892 -1.41935248
C 6.69993052 -1.04627226 -1.62189928
C 5.55083277 -0.75550788 -0.86398363
C 5.59022489 0.24598640 0.12530254
C 6.79397450 0.94733295 0.33540389
C 7.93141247 0.64646760 -0.43517291
O 6.65524582 -2.01715012 -2.56991226
O 9.08625159 1.33030849 -0.23046118
H 6.84736475 1.73436755 1.08283547
H 5.77548915 -2.41438963 -2.60381366
H 8.96948444 1.98699629 0.46814342
H 4.63919276 -1.32026974 -1.03789022
H -8.46724668 0.02615081 -1.38714196
H 8.78032089 -0.57861981 -2.00871841
*
