# 
!wB97X-D3 def2-TZVP def2/J RIJCOSX Grid5 FinalGrid6 TightSCF
%pal 
 nprocs 24
end
%tddft
  Mode sTDDFT
  nroots 2
  Ethresh 10.0
  maxcore 5000
  triplets true
end
* xyz 0 1 
C 8.55411275 2.42839027 1.73616982
C 7.97951050 1.45974095 0.91696987
C 8.81565455 0.63659641 0.13910567
C 10.22271148 0.83682450 0.21534607
C 10.80469572 1.80726174 1.04518908
C 9.94788842 2.59948077 1.80534964
C 8.60040927 -0.43119476 -0.82567886
C 9.89531449 -0.80459683 -1.29330153
N 10.85202170 -0.04572016 -0.64502726
C 10.10377482 -1.78119918 -2.27832603
C 8.97532498 -2.39091233 -2.82262615
C 7.69063676 -2.04473882 -2.38595245
C 7.46533734 -1.08534020 -1.37984023
H 6.83494219 -2.55342787 -2.82408762
H 11.85052816 -0.10329942 -0.80289984
H 9.08951602 -3.14746768 -3.59375385
H 6.90019534 1.34272631 0.88575495
H 11.88280864 1.93751377 1.08778586
H 10.36180688 3.36212929 2.45983383
H 7.91299374 3.06554131 2.33933999
S 1.21487063 -0.03761066 0.59443906
C 2.23740243 -0.55735883 -0.75427927
N 1.55041915 -0.88952647 -1.83975560
N 0.19909670 -0.76068456 -1.68867077
C -0.17612893 -0.33183710 -0.48801042
C 3.67808396 -0.60875507 -0.67028476
N 4.37052720 -0.28261223 0.41336790
N 5.72355840 -0.41149051 0.25036665
C 6.08596769 -0.82912108 -0.95214503
S 4.69327192 -1.12542003 -2.02568012
C -3.04816300 0.75023823 1.70550556
C -1.77493977 0.51750050 1.21182237
C -1.55101222 -0.11166936 -0.04833086
C -2.67014280 -0.50898903 -0.81296373
C -4.00452570 -0.24282544 -0.34528530
C -4.20047978 0.35391169 0.94217717
C -5.15797369 -0.62243220 -1.11529228
C -6.43888562 -0.36886373 -0.62416480
C -6.62553261 0.24903776 0.62460703
C -5.53035510 0.61682030 1.40491057
N -5.73530210 1.13803693 2.70357555
C -6.34203472 2.25429118 2.93248676
C -6.57045745 2.68908851 4.35914948
N -5.00800916 -1.11503953 -2.43004189
C -5.52565812 -2.22512882 -2.84087738
C -6.23611369 -3.22708221 -1.95021092
N -2.50252247 -1.06402245 -2.09272825
C -2.12405473 -2.27505100 -2.32454063
C -1.90039985 -2.72499382 -3.74400584
N -3.21620153 1.26399604 3.01263544
C -2.75722063 2.41152378 3.38731909
C -2.92552935 2.83548524 4.82552458
C -2.07456228 3.40933317 2.47105388
C -6.82548928 3.20730510 1.85577466
C -5.39836085 -2.60268439 -4.29608399
C -1.85833425 -3.29518398 -1.23649067
H -0.91792842 0.81077440 1.81297260
H -7.30212795 -0.63176856 -1.22875938
H -6.55292172 4.23200786 2.10376585
H -7.91227656 3.17331872 1.77540817
H -6.40471581 2.95388868 0.88654216
H -6.19019788 1.95069961 5.05868283
H -6.07397970 3.64009887 4.55418063
H -7.63289297 2.83920015 4.55177836
H -2.25260837 3.17258171 1.42551768
H -0.99751343 3.40859164 2.64024169
H -2.43182320 4.41794929 2.67265442
H -1.95750569 3.04220182 5.28215983
H -3.51014457 3.75377406 4.88930721
H -3.42645241 2.06528836 5.40441381
H -2.21277130 -1.96164973 -4.45031489
H -0.84266594 -2.93326608 -3.90645691
H -2.44625377 -3.64499389 -3.95272652
H -0.78399647 -3.43481344 -1.11428316
H -2.26892538 -2.96866280 -0.28435190
H -2.28715069 -4.26175406 -1.49619590
H -4.88536046 -3.55864177 -4.40392875
H -6.38313948 -2.71782470 -4.74974472
H -4.84753542 -1.84806850 -4.84948349
H -7.31208161 -3.20067719 -2.12418188
H -5.89905842 -4.23829777 -2.17358803
H -6.05667437 -3.01845817 -0.89900347
H 11.10480456 -2.04222379 -2.60999001
H -7.63109470 0.43423127 0.99115956
*
$new_job
# 
!wB97X-D3 def2-TZVP def2/J RIJCOSX Grid5 FinalGrid6 TightSCF
%pal 
 nprocs 24
end
%elprop
   dipole     true
   quadrupole true
end
%tddft
  Mode sTDDFT
  nroots 2
  Ethresh 10.0
  maxcore 5000
end
* xyz 0 1 
C 8.55411275 2.42839027 1.73616982
C 7.97951050 1.45974095 0.91696987
C 8.81565455 0.63659641 0.13910567
C 10.22271148 0.83682450 0.21534607
C 10.80469572 1.80726174 1.04518908
C 9.94788842 2.59948077 1.80534964
C 8.60040927 -0.43119476 -0.82567886
C 9.89531449 -0.80459683 -1.29330153
N 10.85202170 -0.04572016 -0.64502726
C 10.10377482 -1.78119918 -2.27832603
C 8.97532498 -2.39091233 -2.82262615
C 7.69063676 -2.04473882 -2.38595245
C 7.46533734 -1.08534020 -1.37984023
H 6.83494219 -2.55342787 -2.82408762
H 11.85052816 -0.10329942 -0.80289984
H 9.08951602 -3.14746768 -3.59375385
H 6.90019534 1.34272631 0.88575495
H 11.88280864 1.93751377 1.08778586
H 10.36180688 3.36212929 2.45983383
H 7.91299374 3.06554131 2.33933999
S 1.21487063 -0.03761066 0.59443906
C 2.23740243 -0.55735883 -0.75427927
N 1.55041915 -0.88952647 -1.83975560
N 0.19909670 -0.76068456 -1.68867077
C -0.17612893 -0.33183710 -0.48801042
C 3.67808396 -0.60875507 -0.67028476
N 4.37052720 -0.28261223 0.41336790
N 5.72355840 -0.41149051 0.25036665
C 6.08596769 -0.82912108 -0.95214503
S 4.69327192 -1.12542003 -2.02568012
C -3.04816300 0.75023823 1.70550556
C -1.77493977 0.51750050 1.21182237
C -1.55101222 -0.11166936 -0.04833086
C -2.67014280 -0.50898903 -0.81296373
C -4.00452570 -0.24282544 -0.34528530
C -4.20047978 0.35391169 0.94217717
C -5.15797369 -0.62243220 -1.11529228
C -6.43888562 -0.36886373 -0.62416480
C -6.62553261 0.24903776 0.62460703
C -5.53035510 0.61682030 1.40491057
N -5.73530210 1.13803693 2.70357555
C -6.34203472 2.25429118 2.93248676
C -6.57045745 2.68908851 4.35914948
N -5.00800916 -1.11503953 -2.43004189
C -5.52565812 -2.22512882 -2.84087738
C -6.23611369 -3.22708221 -1.95021092
N -2.50252247 -1.06402245 -2.09272825
C -2.12405473 -2.27505100 -2.32454063
C -1.90039985 -2.72499382 -3.74400584
N -3.21620153 1.26399604 3.01263544
C -2.75722063 2.41152378 3.38731909
C -2.92552935 2.83548524 4.82552458
C -2.07456228 3.40933317 2.47105388
C -6.82548928 3.20730510 1.85577466
C -5.39836085 -2.60268439 -4.29608399
C -1.85833425 -3.29518398 -1.23649067
H -0.91792842 0.81077440 1.81297260
H -7.30212795 -0.63176856 -1.22875938
H -6.55292172 4.23200786 2.10376585
H -7.91227656 3.17331872 1.77540817
H -6.40471581 2.95388868 0.88654216
H -6.19019788 1.95069961 5.05868283
H -6.07397970 3.64009887 4.55418063
H -7.63289297 2.83920015 4.55177836
H -2.25260837 3.17258171 1.42551768
H -0.99751343 3.40859164 2.64024169
H -2.43182320 4.41794929 2.67265442
H -1.95750569 3.04220182 5.28215983
H -3.51014457 3.75377406 4.88930721
H -3.42645241 2.06528836 5.40441381
H -2.21277130 -1.96164973 -4.45031489
H -0.84266594 -2.93326608 -3.90645691
H -2.44625377 -3.64499389 -3.95272652
H -0.78399647 -3.43481344 -1.11428316
H -2.26892538 -2.96866280 -0.28435190
H -2.28715069 -4.26175406 -1.49619590
H -4.88536046 -3.55864177 -4.40392875
H -6.38313948 -2.71782470 -4.74974472
H -4.84753542 -1.84806850 -4.84948349
H -7.31208161 -3.20067719 -2.12418188
H -5.89905842 -4.23829777 -2.17358803
H -6.05667437 -3.01845817 -0.89900347
H 11.10480456 -2.04222379 -2.60999001
H -7.63109470 0.43423127 0.99115956
*
