# 
!wB97X-D3 def2-TZVP def2/J RIJCOSX Grid5 FinalGrid6 TightSCF
%pal 
 nprocs 24
end
%tddft
  Mode sTDDFT
  nroots 2
  Ethresh 10.0
  maxcore 5000
  triplets true
end
* xyz 0 1 
C 7.10724641 0.70897087 -2.24966552
C 6.16301477 0.45223537 -1.25801448
C 6.52598934 -0.34674750 -0.15824581
C 7.83850340 -0.89615186 -0.11991922
C 8.79403701 -0.63173198 -1.11294745
C 8.40962032 0.18454823 -2.17444436
C 5.83212040 -0.85143210 1.01555860
C 6.75191790 -1.71176490 1.67998751
N 7.95682902 -1.70286082 0.99879343
C 6.41275881 -2.44774438 2.82594780
C 5.10732164 -2.32496782 3.29907887
C 4.18571188 -1.47465362 2.67264721
C 4.52392306 -0.70183385 1.54648297
H 3.18462156 -1.38450290 3.08715105
H 8.77511366 -2.24391534 1.24967997
H 4.79892241 -2.88840815 4.17554457
H 5.15837211 0.85382349 -1.35234378
H 9.79292710 -1.05672052 -1.06056382
H 9.12259863 0.40975169 -2.96313614
H 6.83311970 1.32536169 -3.10142441
N -0.86946100 1.11364427 0.16466123
C 0.19824835 1.98017022 -0.02812423
C -0.13571627 3.22475172 -0.53574065
S -1.86058843 3.33158764 -0.78844397
C -2.02436873 1.66150170 -0.18303147
C 1.53990733 1.53294394 0.30468846
S 1.81975274 -0.09616298 0.94211157
C 3.54581830 0.24881332 1.00300336
C 3.76128873 1.54516800 0.56881344
N 2.64677605 2.25242513 0.17949619
H 0.54280105 4.03781232 -0.75660227
H 4.73443487 2.03116873 0.55624844
C -8.16554374 -2.77381163 0.35165771
C -7.37191500 -1.60336313 0.14773568
C -6.04927035 -1.74362248 0.56438082
S -5.78504224 -3.34893016 1.23358309
C -7.44851671 -3.79191858 0.93365852
C -5.12349158 -0.67766814 0.32505129
C -5.59536537 0.52649997 -0.19122591
C -7.09120765 0.77902839 -0.36932542
O -7.85586341 -0.48892979 -0.45037458
C -4.55758138 1.46840714 -0.41739027
C -3.29498885 0.99179366 -0.08961540
S -3.38649916 -0.66459625 0.51741849
C -7.64887398 1.55121191 0.85074117
H -9.21268003 -2.85169810 0.08340870
H -4.72323165 2.46816314 -0.80687062
H -8.71828061 1.71730303 0.74464046
H -7.15691777 2.51604517 0.94810461
H -7.47857987 0.98763312 1.76493323
C -7.39677946 1.52813437 -1.67640687
H -8.46972753 1.64866280 -1.80326049
H -6.94057531 2.51499718 -1.66863143
H -7.01092608 0.98034752 -2.53230519
H 7.13342113 -3.09823374 3.31328942
H -7.82522552 -4.77043500 1.20185590
*
$new_job
# 
!wB97X-D3 def2-TZVP def2/J RIJCOSX Grid5 FinalGrid6 TightSCF
%pal 
 nprocs 24
end
%elprop
   dipole     true
   quadrupole true
end
%tddft
  Mode sTDDFT
  nroots 2
  Ethresh 10.0
  maxcore 5000
end
* xyz 0 1 
C 7.10724641 0.70897087 -2.24966552
C 6.16301477 0.45223537 -1.25801448
C 6.52598934 -0.34674750 -0.15824581
C 7.83850340 -0.89615186 -0.11991922
C 8.79403701 -0.63173198 -1.11294745
C 8.40962032 0.18454823 -2.17444436
C 5.83212040 -0.85143210 1.01555860
C 6.75191790 -1.71176490 1.67998751
N 7.95682902 -1.70286082 0.99879343
C 6.41275881 -2.44774438 2.82594780
C 5.10732164 -2.32496782 3.29907887
C 4.18571188 -1.47465362 2.67264721
C 4.52392306 -0.70183385 1.54648297
H 3.18462156 -1.38450290 3.08715105
H 8.77511366 -2.24391534 1.24967997
H 4.79892241 -2.88840815 4.17554457
H 5.15837211 0.85382349 -1.35234378
H 9.79292710 -1.05672052 -1.06056382
H 9.12259863 0.40975169 -2.96313614
H 6.83311970 1.32536169 -3.10142441
N -0.86946100 1.11364427 0.16466123
C 0.19824835 1.98017022 -0.02812423
C -0.13571627 3.22475172 -0.53574065
S -1.86058843 3.33158764 -0.78844397
C -2.02436873 1.66150170 -0.18303147
C 1.53990733 1.53294394 0.30468846
S 1.81975274 -0.09616298 0.94211157
C 3.54581830 0.24881332 1.00300336
C 3.76128873 1.54516800 0.56881344
N 2.64677605 2.25242513 0.17949619
H 0.54280105 4.03781232 -0.75660227
H 4.73443487 2.03116873 0.55624844
C -8.16554374 -2.77381163 0.35165771
C -7.37191500 -1.60336313 0.14773568
C -6.04927035 -1.74362248 0.56438082
S -5.78504224 -3.34893016 1.23358309
C -7.44851671 -3.79191858 0.93365852
C -5.12349158 -0.67766814 0.32505129
C -5.59536537 0.52649997 -0.19122591
C -7.09120765 0.77902839 -0.36932542
O -7.85586341 -0.48892979 -0.45037458
C -4.55758138 1.46840714 -0.41739027
C -3.29498885 0.99179366 -0.08961540
S -3.38649916 -0.66459625 0.51741849
C -7.64887398 1.55121191 0.85074117
H -9.21268003 -2.85169810 0.08340870
H -4.72323165 2.46816314 -0.80687062
H -8.71828061 1.71730303 0.74464046
H -7.15691777 2.51604517 0.94810461
H -7.47857987 0.98763312 1.76493323
C -7.39677946 1.52813437 -1.67640687
H -8.46972753 1.64866280 -1.80326049
H -6.94057531 2.51499718 -1.66863143
H -7.01092608 0.98034752 -2.53230519
H 7.13342113 -3.09823374 3.31328942
H -7.82522552 -4.77043500 1.20185590
*
