# 
!wB97X-D3 def2-TZVP def2/J RIJCOSX Grid5 FinalGrid6 TightSCF
%pal 
 nprocs 24
end
%tddft
  Mode sTDDFT
  nroots 2
  Ethresh 10.0
  maxcore 5000
  triplets true
end
* xyz 0 1 
C -4.89128075 1.71196062 2.54678163
C -4.20685821 0.91817080 1.63014087
C -4.94026694 0.09314832 0.75609202
C -6.36094314 0.11315225 0.83947267
C -7.05290132 0.90690891 1.76706347
C -6.29544033 1.70524832 2.62019288
C -4.60133192 -0.82534642 -0.31986737
C -5.84353462 -1.29593663 -0.84071287
N -6.88220918 -0.73545318 -0.12139387
C -5.93529487 -2.17270269 -1.93159883
C -4.74370117 -2.57776093 -2.52936095
C -3.50861931 -2.13191053 -2.04297332
C -3.39808596 -1.27266137 -0.93253158
H -2.59906971 -2.48240392 -2.52555584
H -7.86710692 -0.89419211 -0.29504426
H -4.76847921 -3.25058813 -3.38167086
H -3.12148854 0.93695317 1.59722437
H -8.13863941 0.90112114 1.81267096
H -6.79601847 2.33392278 3.35183811
H -4.32974242 2.34948481 3.22417825
S 2.67276806 0.27434168 1.23433721
C 4.08915526 0.28121241 0.14925598
N 3.77916653 -0.04604974 -1.09767259
N 2.45593824 -0.31671455 -1.28873443
C 1.72888282 -0.20036801 -0.18439214
C 0.30407691 -0.43403347 -0.12977546
N -0.41892104 -0.32192232 0.97700107
N -1.74538998 -0.59087199 0.78571718
C -2.05850224 -0.90529018 -0.46259973
S -0.64457375 -0.90429874 -1.54600443
C 7.92790557 1.28024343 1.67921615
N 6.86614234 1.27034356 2.48300461
C 5.65438003 0.94565817 1.95727050
C 5.43361688 0.61636987 0.61708964
C 6.57170560 0.62312098 -0.26286828
C 7.84271284 0.96421626 0.29164141
N 6.45158060 0.31365113 -1.59397641
C 7.56041379 0.34829709 -2.32168714
C 8.82757819 0.68840040 -1.76769238
N 8.97793710 0.99284604 -0.48497769
H 4.80973529 0.95038291 2.65553527
H 7.47440824 0.10239710 -3.38699808
H 9.72139148 0.70584115 -2.40254662
H -6.89855281 -2.51283316 -2.30115077
H 8.89725643 1.54364476 2.11696167
*
$new_job
# 
!wB97X-D3 def2-TZVP def2/J RIJCOSX Grid5 FinalGrid6 TightSCF
%pal 
 nprocs 24
end
%elprop
   dipole     true
   quadrupole true
end
%tddft
  Mode sTDDFT
  nroots 2
  Ethresh 10.0
  maxcore 5000
end
* xyz 0 1 
C -4.89128075 1.71196062 2.54678163
C -4.20685821 0.91817080 1.63014087
C -4.94026694 0.09314832 0.75609202
C -6.36094314 0.11315225 0.83947267
C -7.05290132 0.90690891 1.76706347
C -6.29544033 1.70524832 2.62019288
C -4.60133192 -0.82534642 -0.31986737
C -5.84353462 -1.29593663 -0.84071287
N -6.88220918 -0.73545318 -0.12139387
C -5.93529487 -2.17270269 -1.93159883
C -4.74370117 -2.57776093 -2.52936095
C -3.50861931 -2.13191053 -2.04297332
C -3.39808596 -1.27266137 -0.93253158
H -2.59906971 -2.48240392 -2.52555584
H -7.86710692 -0.89419211 -0.29504426
H -4.76847921 -3.25058813 -3.38167086
H -3.12148854 0.93695317 1.59722437
H -8.13863941 0.90112114 1.81267096
H -6.79601847 2.33392278 3.35183811
H -4.32974242 2.34948481 3.22417825
S 2.67276806 0.27434168 1.23433721
C 4.08915526 0.28121241 0.14925598
N 3.77916653 -0.04604974 -1.09767259
N 2.45593824 -0.31671455 -1.28873443
C 1.72888282 -0.20036801 -0.18439214
C 0.30407691 -0.43403347 -0.12977546
N -0.41892104 -0.32192232 0.97700107
N -1.74538998 -0.59087199 0.78571718
C -2.05850224 -0.90529018 -0.46259973
S -0.64457375 -0.90429874 -1.54600443
C 7.92790557 1.28024343 1.67921615
N 6.86614234 1.27034356 2.48300461
C 5.65438003 0.94565817 1.95727050
C 5.43361688 0.61636987 0.61708964
C 6.57170560 0.62312098 -0.26286828
C 7.84271284 0.96421626 0.29164141
N 6.45158060 0.31365113 -1.59397641
C 7.56041379 0.34829709 -2.32168714
C 8.82757819 0.68840040 -1.76769238
N 8.97793710 0.99284604 -0.48497769
H 4.80973529 0.95038291 2.65553527
H 7.47440824 0.10239710 -3.38699808
H 9.72139148 0.70584115 -2.40254662
H -6.89855281 -2.51283316 -2.30115077
H 8.89725643 1.54364476 2.11696167
*
