# 
!wB97X-D3 def2-TZVP def2/J RIJCOSX Grid5 FinalGrid6 TightSCF
%pal 
 nprocs 24
end
%tddft
  Mode sTDDFT
  nroots 2
  Ethresh 10.0
  maxcore 5000
  triplets true
end
* xyz 0 1 
C 4.52986588 1.69846119 0.00060234
C 3.70518855 0.60675460 -0.26127789
C 4.18665001 -0.43415514 -1.07659098
C 5.51768417 -0.34924285 -1.57360294
C 6.34707149 0.75355509 -1.31844204
C 5.82978441 1.77839468 -0.52933674
C 3.65700489 -1.71001006 -1.52979429
C 4.71216045 -2.34582886 -2.24424151
N 5.80860554 -1.50223929 -2.28237334
C 4.59900567 -3.64042973 -2.77442452
C 3.39788058 -4.31456685 -2.56055384
C 2.33807901 -3.70753504 -1.87265299
C 2.42448209 -2.39623363 -1.36982600
H 1.40658968 -4.25457857 -1.74941543
H 6.69891333 -1.71853265 -2.71352557
H 3.27368535 -5.32429140 -2.94224282
H 2.71297612 0.56242952 0.17803201
H 7.35846419 0.80062272 -1.71333413
H 6.44390402 2.64752151 -0.30910302
H 4.16385327 2.50543665 0.62932233
N -2.88218949 -0.04843376 1.24573696
C -2.13309112 -1.21317762 1.16483198
C -2.65669956 -2.29135143 1.86662664
S -4.13695343 -1.84563121 2.65885404
C -3.96095528 -0.20521111 1.98731067
C -0.90187128 -1.23167187 0.38680125
S 0.11354552 -2.68910680 0.24871311
C 1.24296207 -1.77898356 -0.75525696
C 0.76177809 -0.49268800 -0.91889924
N -0.42096004 -0.19644209 -0.28282537
H -2.23101668 -3.28508847 1.93383881
H 1.24044801 0.26258566 -1.53837789
C -4.98449723 0.79119053 2.30074783
N -5.98627583 0.35705887 3.08719936
C -6.98467531 1.21461013 3.43196284
C -7.03487420 2.53369614 3.01511158
C -5.99755752 3.03253581 2.18401556
C -4.94164056 2.14485888 1.81286645
N -6.01351040 4.33863831 1.74976224
C -5.00365511 4.71720566 0.97708543
C -3.95046312 3.83202119 0.60691197
N -3.91194920 2.56892554 1.01221679
H -7.77282082 0.80775015 4.07291780
H -4.99943978 5.75500277 0.62121561
H -3.13377192 4.18449436 -0.03367846
H 5.41991399 -4.10310935 -3.31477869
H -7.85172849 3.18478935 3.31437103
*
$new_job
# 
!wB97X-D3 def2-TZVP def2/J RIJCOSX Grid5 FinalGrid6 TightSCF
%pal 
 nprocs 24
end
%elprop
   dipole     true
   quadrupole true
end
%tddft
  Mode sTDDFT
  nroots 2
  Ethresh 10.0
  maxcore 5000
end
* xyz 0 1 
C 4.52986588 1.69846119 0.00060234
C 3.70518855 0.60675460 -0.26127789
C 4.18665001 -0.43415514 -1.07659098
C 5.51768417 -0.34924285 -1.57360294
C 6.34707149 0.75355509 -1.31844204
C 5.82978441 1.77839468 -0.52933674
C 3.65700489 -1.71001006 -1.52979429
C 4.71216045 -2.34582886 -2.24424151
N 5.80860554 -1.50223929 -2.28237334
C 4.59900567 -3.64042973 -2.77442452
C 3.39788058 -4.31456685 -2.56055384
C 2.33807901 -3.70753504 -1.87265299
C 2.42448209 -2.39623363 -1.36982600
H 1.40658968 -4.25457857 -1.74941543
H 6.69891333 -1.71853265 -2.71352557
H 3.27368535 -5.32429140 -2.94224282
H 2.71297612 0.56242952 0.17803201
H 7.35846419 0.80062272 -1.71333413
H 6.44390402 2.64752151 -0.30910302
H 4.16385327 2.50543665 0.62932233
N -2.88218949 -0.04843376 1.24573696
C -2.13309112 -1.21317762 1.16483198
C -2.65669956 -2.29135143 1.86662664
S -4.13695343 -1.84563121 2.65885404
C -3.96095528 -0.20521111 1.98731067
C -0.90187128 -1.23167187 0.38680125
S 0.11354552 -2.68910680 0.24871311
C 1.24296207 -1.77898356 -0.75525696
C 0.76177809 -0.49268800 -0.91889924
N -0.42096004 -0.19644209 -0.28282537
H -2.23101668 -3.28508847 1.93383881
H 1.24044801 0.26258566 -1.53837789
C -4.98449723 0.79119053 2.30074783
N -5.98627583 0.35705887 3.08719936
C -6.98467531 1.21461013 3.43196284
C -7.03487420 2.53369614 3.01511158
C -5.99755752 3.03253581 2.18401556
C -4.94164056 2.14485888 1.81286645
N -6.01351040 4.33863831 1.74976224
C -5.00365511 4.71720566 0.97708543
C -3.95046312 3.83202119 0.60691197
N -3.91194920 2.56892554 1.01221679
H -7.77282082 0.80775015 4.07291780
H -4.99943978 5.75500277 0.62121561
H -3.13377192 4.18449436 -0.03367846
H 5.41991399 -4.10310935 -3.31477869
H -7.85172849 3.18478935 3.31437103
*
