# 
!wB97X-D3 def2-TZVP def2/J RIJCOSX Grid5 FinalGrid6 TightSCF
%pal 
 nprocs 24
end
%tddft
  Mode sTDDFT
  nroots 2
  Ethresh 10.0
  maxcore 5000
  triplets true
end
* xyz 0 1 
C -3.98856019 0.27273976 2.87138321
C -3.42972827 0.20552833 1.59716035
C -4.27106058 -0.02180304 0.49238646
C -5.67196807 -0.13702809 0.71607316
C -6.23614242 -0.07847618 1.99960118
C -5.37178143 0.12153192 3.07356339
C -4.07315412 -0.11474293 -0.94491582
C -5.37141328 -0.24177133 -1.51632356
N -6.31271980 -0.28073360 -0.50260365
C -5.59118651 -0.28455528 -2.90187528
C -4.47409885 -0.17724206 -3.72858143
C -3.18361191 -0.06483518 -3.19292092
C -2.94586795 -0.05961493 -1.80613233
H -2.33413563 -0.01100807 -3.86939331
H -7.31418064 -0.34872912 -0.63596332
H -4.60137080 -0.19188567 -4.80756939
H -2.36049848 0.34604926 1.46878088
H -7.30834320 -0.17522228 2.14819085
H -5.77305642 0.17405079 4.08213846
H -3.34421405 0.44787150 3.72847452
N 3.16049429 0.00947936 -0.01917827
C 2.29731480 0.55639846 -0.95470446
C 2.89418299 1.42857586 -1.85532126
S 4.59558687 1.57449830 -1.52660860
C 4.40400128 0.43738541 -0.17664133
C 0.88522703 0.19920931 -0.93405428
S -0.28223819 0.86980364 -2.09992577
C -1.56420743 -0.04900731 -1.31030690
C -1.01663470 -0.78463410 -0.27503706
N 0.33583370 -0.64024040 -0.07065232
H 2.40264232 1.96040251 -2.66073055
H -1.58044276 -1.47949726 0.34346569
C 7.67939976 -0.83744400 2.38163688
C 6.39765695 -1.28883169 2.55620526
C 5.32411334 -0.86757360 1.71344845
C 5.51352879 0.02072091 0.67113251
C 6.85663426 0.53004515 0.44319218
C 7.95943062 0.09128163 1.31639831
N 7.13778571 1.38087127 -0.52538315
S 8.99371847 1.72565171 -0.39610090
N 9.16680326 0.57769678 1.07616343
H 6.17815820 -1.98976913 3.35768053
H 4.32577355 -1.25630426 1.89533298
H -6.59236086 -0.38097241 -3.31210823
H 8.48459036 -1.16786996 3.03162341
*
$new_job
# 
!wB97X-D3 def2-TZVP def2/J RIJCOSX Grid5 FinalGrid6 TightSCF
%pal 
 nprocs 24
end
%elprop
   dipole     true
   quadrupole true
end
%tddft
  Mode sTDDFT
  nroots 2
  Ethresh 10.0
  maxcore 5000
end
* xyz 0 1 
C -3.98856019 0.27273976 2.87138321
C -3.42972827 0.20552833 1.59716035
C -4.27106058 -0.02180304 0.49238646
C -5.67196807 -0.13702809 0.71607316
C -6.23614242 -0.07847618 1.99960118
C -5.37178143 0.12153192 3.07356339
C -4.07315412 -0.11474293 -0.94491582
C -5.37141328 -0.24177133 -1.51632356
N -6.31271980 -0.28073360 -0.50260365
C -5.59118651 -0.28455528 -2.90187528
C -4.47409885 -0.17724206 -3.72858143
C -3.18361191 -0.06483518 -3.19292092
C -2.94586795 -0.05961493 -1.80613233
H -2.33413563 -0.01100807 -3.86939331
H -7.31418064 -0.34872912 -0.63596332
H -4.60137080 -0.19188567 -4.80756939
H -2.36049848 0.34604926 1.46878088
H -7.30834320 -0.17522228 2.14819085
H -5.77305642 0.17405079 4.08213846
H -3.34421405 0.44787150 3.72847452
N 3.16049429 0.00947936 -0.01917827
C 2.29731480 0.55639846 -0.95470446
C 2.89418299 1.42857586 -1.85532126
S 4.59558687 1.57449830 -1.52660860
C 4.40400128 0.43738541 -0.17664133
C 0.88522703 0.19920931 -0.93405428
S -0.28223819 0.86980364 -2.09992577
C -1.56420743 -0.04900731 -1.31030690
C -1.01663470 -0.78463410 -0.27503706
N 0.33583370 -0.64024040 -0.07065232
H 2.40264232 1.96040251 -2.66073055
H -1.58044276 -1.47949726 0.34346569
C 7.67939976 -0.83744400 2.38163688
C 6.39765695 -1.28883169 2.55620526
C 5.32411334 -0.86757360 1.71344845
C 5.51352879 0.02072091 0.67113251
C 6.85663426 0.53004515 0.44319218
C 7.95943062 0.09128163 1.31639831
N 7.13778571 1.38087127 -0.52538315
S 8.99371847 1.72565171 -0.39610090
N 9.16680326 0.57769678 1.07616343
H 6.17815820 -1.98976913 3.35768053
H 4.32577355 -1.25630426 1.89533298
H -6.59236086 -0.38097241 -3.31210823
H 8.48459036 -1.16786996 3.03162341
*
