# 
!wB97X-D3 def2-TZVP def2/J RIJCOSX Grid5 FinalGrid6 TightSCF
%pal 
 nprocs 24
end
%tddft
  Mode sTDDFT
  nroots 2
  Ethresh 10.0
  maxcore 5000
  triplets true
end
* xyz 0 1 
C -5.48059320 -2.27270189 1.06072266
C -4.56468060 -1.28937486 0.69524085
C -5.03039256 -0.11932871 0.06588085
C -6.42641721 0.00626378 -0.18090426
C -7.35227892 -0.97981115 0.19255768
C -6.85715711 -2.12123771 0.81833073
C -4.40488477 1.07974054 -0.47111819
C -5.46212344 1.85707980 -1.03069637
N -6.66446569 1.20463422 -0.83107346
C -5.25195891 3.07641554 -1.69138679
C -3.93682912 3.52182725 -1.80786485
C -2.87713070 2.78049603 -1.27091063
C -3.07337623 1.56768433 -0.58231308
H -1.86562609 3.16810220 -1.36862934
H -7.56909541 1.53609337 -1.14255028
H -3.72702154 4.45754321 -2.31829168
H -3.50692047 -1.42695772 0.89956392
H -8.41410294 -0.85766603 -0.00427685
H -7.54390854 -2.90698046 1.12212701
H -5.12620726 -3.17698988 1.54788455
S 2.94985814 0.28398487 -0.28878695
C 4.08757285 -0.66764060 0.69197077
N 3.48899323 -1.32340865 1.67989545
N 2.13834466 -1.13210477 1.73577679
C 1.68126547 -0.32373407 0.78814219
C 0.28797544 0.03860691 0.62898568
N -0.69453141 -0.38462699 1.41186418
N -1.92254576 0.09929846 1.05101321
C -1.90586538 0.89040051 -0.00908224
S -0.26168626 1.11875747 -0.66575896
C 6.11134333 0.00489600 -0.63952189
C 5.52529628 -0.71724093 0.43179479
C 6.40207364 -1.49180859 1.24081028
C 7.78802528 -1.53864181 0.98863072
C 8.32513430 -0.80477317 -0.08690255
C 7.48992491 -0.02884687 -0.90711484
O 9.65091719 -0.83839668 -0.34269792
O 5.90215415 -2.19656511 2.26998675
O 5.30605699 0.75231948 -1.42938491
H 5.81456890 1.19558558 -2.12106706
H 6.60182808 -2.67410166 2.73314143
H 10.10573078 -1.40606908 0.29270255
H 7.90839008 0.53449648 -1.73411757
H -6.08129554 3.64373664 -2.10437648
H 8.43554134 -2.13895527 1.62290411
*
$new_job
# 
!wB97X-D3 def2-TZVP def2/J RIJCOSX Grid5 FinalGrid6 TightSCF
%pal 
 nprocs 24
end
%elprop
   dipole     true
   quadrupole true
end
%tddft
  Mode sTDDFT
  nroots 2
  Ethresh 10.0
  maxcore 5000
end
* xyz 0 1 
C -5.48059320 -2.27270189 1.06072266
C -4.56468060 -1.28937486 0.69524085
C -5.03039256 -0.11932871 0.06588085
C -6.42641721 0.00626378 -0.18090426
C -7.35227892 -0.97981115 0.19255768
C -6.85715711 -2.12123771 0.81833073
C -4.40488477 1.07974054 -0.47111819
C -5.46212344 1.85707980 -1.03069637
N -6.66446569 1.20463422 -0.83107346
C -5.25195891 3.07641554 -1.69138679
C -3.93682912 3.52182725 -1.80786485
C -2.87713070 2.78049603 -1.27091063
C -3.07337623 1.56768433 -0.58231308
H -1.86562609 3.16810220 -1.36862934
H -7.56909541 1.53609337 -1.14255028
H -3.72702154 4.45754321 -2.31829168
H -3.50692047 -1.42695772 0.89956392
H -8.41410294 -0.85766603 -0.00427685
H -7.54390854 -2.90698046 1.12212701
H -5.12620726 -3.17698988 1.54788455
S 2.94985814 0.28398487 -0.28878695
C 4.08757285 -0.66764060 0.69197077
N 3.48899323 -1.32340865 1.67989545
N 2.13834466 -1.13210477 1.73577679
C 1.68126547 -0.32373407 0.78814219
C 0.28797544 0.03860691 0.62898568
N -0.69453141 -0.38462699 1.41186418
N -1.92254576 0.09929846 1.05101321
C -1.90586538 0.89040051 -0.00908224
S -0.26168626 1.11875747 -0.66575896
C 6.11134333 0.00489600 -0.63952189
C 5.52529628 -0.71724093 0.43179479
C 6.40207364 -1.49180859 1.24081028
C 7.78802528 -1.53864181 0.98863072
C 8.32513430 -0.80477317 -0.08690255
C 7.48992491 -0.02884687 -0.90711484
O 9.65091719 -0.83839668 -0.34269792
O 5.90215415 -2.19656511 2.26998675
O 5.30605699 0.75231948 -1.42938491
H 5.81456890 1.19558558 -2.12106706
H 6.60182808 -2.67410166 2.73314143
H 10.10573078 -1.40606908 0.29270255
H 7.90839008 0.53449648 -1.73411757
H -6.08129554 3.64373664 -2.10437648
H 8.43554134 -2.13895527 1.62290411
*
