# 
!wB97X-D3 def2-TZVP def2/J RIJCOSX Grid5 FinalGrid6 TightSCF
%pal 
 nprocs 24
end
%tddft
  Mode sTDDFT
  nroots 2
  Ethresh 10.0
  maxcore 5000
  triplets true
end
* xyz 0 1 
C -4.39549656 -2.85943458 1.20035652
C -3.73200610 -1.69631766 0.81817263
C -4.48448457 -0.54501743 0.51666998
C -5.90353162 -0.62592613 0.59339763
C -6.57421139 -1.79505115 0.98395409
C -5.79768961 -2.90957348 1.28970739
C -4.17130022 0.80390335 0.06982566
C -5.42512917 1.45556313 -0.12436960
N -6.44711616 0.58860802 0.21350838
C -5.53964074 2.76761505 -0.60754993
C -4.36064082 3.44127189 -0.91803370
C -3.11326952 2.83133363 -0.73120059
C -2.98271134 1.52552611 -0.22239260
H -2.21238525 3.39341198 -0.96195145
H -7.43610704 0.79817928 0.15505318
H -4.40418427 4.45608851 -1.30272364
H -2.64895429 -1.69287311 0.75229863
H -7.65897350 -1.82912423 1.03838328
H -6.28155929 -3.83347095 1.59493002
H -3.81833430 -3.74956006 1.43475562
C 4.15309087 0.11248300 -0.27668780
N 3.83649788 1.02849978 -1.20968950
O 2.49045618 1.23145197 -1.13667078
C 1.96777510 0.45495403 -0.17622530
C 2.97135125 -0.28604259 0.41486073
C 0.53178194 0.52869256 0.05638218
N -0.07183260 -0.20895599 1.00032950
O -1.39415141 0.10016982 0.94557697
C -1.62569709 1.00952805 -0.01307295
C -0.42606542 1.33815658 -0.61867901
H -0.25642869 2.02783236 -1.43238122
H 2.86751931 -0.99497988 1.22103951
C 5.54707388 -0.32174361 -0.05962746
C 6.65626005 0.41761667 -0.56174887
C 7.98001692 0.00817743 -0.31411352
C 8.22603729 -1.14711238 0.42157750
C 7.16400396 -1.90554379 0.92224468
C 5.84327083 -1.49094008 0.68452149
O 6.48985794 1.54652106 -1.28104513
O 4.82736657 -2.25143775 1.17415693
H 7.35019393 -2.81085674 1.49322868
H 5.54109778 1.73924428 -1.41497136
H 5.18460490 -3.02185989 1.63494071
H 8.79722982 0.60174149 -0.70800621
H -6.51106447 3.23449014 -0.74316999
H 9.24767904 -1.46513868 0.60743871
*
$new_job
# 
!wB97X-D3 def2-TZVP def2/J RIJCOSX Grid5 FinalGrid6 TightSCF
%pal 
 nprocs 24
end
%elprop
   dipole     true
   quadrupole true
end
%tddft
  Mode sTDDFT
  nroots 2
  Ethresh 10.0
  maxcore 5000
end
* xyz 0 1 
C -4.39549656 -2.85943458 1.20035652
C -3.73200610 -1.69631766 0.81817263
C -4.48448457 -0.54501743 0.51666998
C -5.90353162 -0.62592613 0.59339763
C -6.57421139 -1.79505115 0.98395409
C -5.79768961 -2.90957348 1.28970739
C -4.17130022 0.80390335 0.06982566
C -5.42512917 1.45556313 -0.12436960
N -6.44711616 0.58860802 0.21350838
C -5.53964074 2.76761505 -0.60754993
C -4.36064082 3.44127189 -0.91803370
C -3.11326952 2.83133363 -0.73120059
C -2.98271134 1.52552611 -0.22239260
H -2.21238525 3.39341198 -0.96195145
H -7.43610704 0.79817928 0.15505318
H -4.40418427 4.45608851 -1.30272364
H -2.64895429 -1.69287311 0.75229863
H -7.65897350 -1.82912423 1.03838328
H -6.28155929 -3.83347095 1.59493002
H -3.81833430 -3.74956006 1.43475562
C 4.15309087 0.11248300 -0.27668780
N 3.83649788 1.02849978 -1.20968950
O 2.49045618 1.23145197 -1.13667078
C 1.96777510 0.45495403 -0.17622530
C 2.97135125 -0.28604259 0.41486073
C 0.53178194 0.52869256 0.05638218
N -0.07183260 -0.20895599 1.00032950
O -1.39415141 0.10016982 0.94557697
C -1.62569709 1.00952805 -0.01307295
C -0.42606542 1.33815658 -0.61867901
H -0.25642869 2.02783236 -1.43238122
H 2.86751931 -0.99497988 1.22103951
C 5.54707388 -0.32174361 -0.05962746
C 6.65626005 0.41761667 -0.56174887
C 7.98001692 0.00817743 -0.31411352
C 8.22603729 -1.14711238 0.42157750
C 7.16400396 -1.90554379 0.92224468
C 5.84327083 -1.49094008 0.68452149
O 6.48985794 1.54652106 -1.28104513
O 4.82736657 -2.25143775 1.17415693
H 7.35019393 -2.81085674 1.49322868
H 5.54109778 1.73924428 -1.41497136
H 5.18460490 -3.02185989 1.63494071
H 8.79722982 0.60174149 -0.70800621
H -6.51106447 3.23449014 -0.74316999
H 9.24767904 -1.46513868 0.60743871
*
