# 
!wB97X-D3 def2-TZVP def2/J RIJCOSX Grid5 FinalGrid6 TightSCF
%pal 
 nprocs 24
end
%tddft
  Mode sTDDFT
  nroots 2
  Ethresh 10.0
  maxcore 5000
  triplets true
end
* xyz 0 1 
C -5.14008605 -0.98425102 2.43525715
C -4.37097844 -0.59679793 1.34112209
C -5.01729767 -0.14151938 0.17600913
C -6.43945282 -0.08591973 0.16905921
C -7.21710638 -0.48241831 1.26783933
C -6.54483498 -0.93353162 2.40075624
C -4.57683523 0.35860792 -1.11708219
C -5.76345333 0.70767425 -1.82832765
N -6.86628951 0.41733051 -1.04736480
C -5.75031362 1.27661609 -3.11023623
C -4.50692077 1.51804751 -3.69075125
C -3.32409797 1.18866720 -3.01754560
C -3.32040791 0.59277032 -1.74141400
H -2.37249109 1.37721304 -3.50937713
H -7.83004862 0.58112513 -1.31138795
H -4.44995563 1.96421487 -4.67940780
H -3.28743122 -0.65084483 1.39074877
H -8.30224578 -0.43361037 1.23552933
H -7.11322451 -1.24892470 3.27172847
H -4.64601261 -1.33740345 3.33625237
S 2.52425073 -1.11615045 0.88743668
C 1.71154434 -0.00860391 -0.22005426
N 2.53338406 0.85977606 -0.80413526
N 3.83446615 0.71099566 -0.42374091
C 4.02012389 -0.26778169 0.45125316
C 0.28766960 -0.04489350 -0.46493837
N -0.53801727 -0.91060948 0.10861251
N -1.83987149 -0.75283322 -0.27662709
C -2.03192195 0.23298956 -1.14083942
S -0.52126382 1.07142708 -1.57257503
C 5.28595386 -0.68278143 1.05314823
N 5.20134898 -1.71025175 1.91788077
C 6.32880502 -2.16594099 2.52773103
C 7.58492235 -1.62689516 2.30955364
C 7.71966037 -0.54129435 1.40474948
C 6.54530667 -0.05078323 0.75586307
N 8.95270930 0.02032764 1.16274901
C 8.98467685 1.03005462 0.30299645
C 7.81392463 1.51958385 -0.34439701
N 6.61355026 0.99578117 -0.12845169
H 6.19987069 -3.00301145 3.22049842
H 9.95899963 1.49039385 0.09757220
H 7.88285191 2.35662904 -1.04890664
H -6.67376426 1.52832076 -3.62406270
H 8.46020363 -2.02169419 2.81817624
*
$new_job
# 
!wB97X-D3 def2-TZVP def2/J RIJCOSX Grid5 FinalGrid6 TightSCF
%pal 
 nprocs 24
end
%elprop
   dipole     true
   quadrupole true
end
%tddft
  Mode sTDDFT
  nroots 2
  Ethresh 10.0
  maxcore 5000
end
* xyz 0 1 
C -5.14008605 -0.98425102 2.43525715
C -4.37097844 -0.59679793 1.34112209
C -5.01729767 -0.14151938 0.17600913
C -6.43945282 -0.08591973 0.16905921
C -7.21710638 -0.48241831 1.26783933
C -6.54483498 -0.93353162 2.40075624
C -4.57683523 0.35860792 -1.11708219
C -5.76345333 0.70767425 -1.82832765
N -6.86628951 0.41733051 -1.04736480
C -5.75031362 1.27661609 -3.11023623
C -4.50692077 1.51804751 -3.69075125
C -3.32409797 1.18866720 -3.01754560
C -3.32040791 0.59277032 -1.74141400
H -2.37249109 1.37721304 -3.50937713
H -7.83004862 0.58112513 -1.31138795
H -4.44995563 1.96421487 -4.67940780
H -3.28743122 -0.65084483 1.39074877
H -8.30224578 -0.43361037 1.23552933
H -7.11322451 -1.24892470 3.27172847
H -4.64601261 -1.33740345 3.33625237
S 2.52425073 -1.11615045 0.88743668
C 1.71154434 -0.00860391 -0.22005426
N 2.53338406 0.85977606 -0.80413526
N 3.83446615 0.71099566 -0.42374091
C 4.02012389 -0.26778169 0.45125316
C 0.28766960 -0.04489350 -0.46493837
N -0.53801727 -0.91060948 0.10861251
N -1.83987149 -0.75283322 -0.27662709
C -2.03192195 0.23298956 -1.14083942
S -0.52126382 1.07142708 -1.57257503
C 5.28595386 -0.68278143 1.05314823
N 5.20134898 -1.71025175 1.91788077
C 6.32880502 -2.16594099 2.52773103
C 7.58492235 -1.62689516 2.30955364
C 7.71966037 -0.54129435 1.40474948
C 6.54530667 -0.05078323 0.75586307
N 8.95270930 0.02032764 1.16274901
C 8.98467685 1.03005462 0.30299645
C 7.81392463 1.51958385 -0.34439701
N 6.61355026 0.99578117 -0.12845169
H 6.19987069 -3.00301145 3.22049842
H 9.95899963 1.49039385 0.09757220
H 7.88285191 2.35662904 -1.04890664
H -6.67376426 1.52832076 -3.62406270
H 8.46020363 -2.02169419 2.81817624
*
