# 
!wB97X-D3 def2-TZVP def2/J RIJCOSX Grid5 FinalGrid6 TightSCF
%pal 
 nprocs 24
end
%tddft
  Mode sTDDFT
  nroots 2
  Ethresh 10.0
  maxcore 5000
  triplets true
end
* xyz 0 1 
C 6.80699810 2.66331192 1.45529921
C 6.53468701 1.38333102 0.97898343
C 7.57171675 0.63924981 0.38619456
C 8.87424658 1.21012304 0.33166030
C 9.14913485 2.50260245 0.80419154
C 8.09392632 3.22193465 1.35973175
C 7.68238081 -0.69539932 -0.17762771
C 9.05715776 -0.87456546 -0.50644863
N 9.74864177 0.28790470 -0.21733216
C 9.56466139 -2.07864710 -1.01782196
C 8.66816660 -3.13187572 -1.18666168
C 7.30718717 -2.97921212 -0.88656564
C 6.78154756 -1.76742125 -0.40346157
H 6.62965430 -3.81127504 -1.05600125
H 10.74428573 0.42377889 -0.34277456
H 9.02380617 -4.08448560 -1.56888487
H 5.53732666 0.96855917 1.08778563
H 10.15018357 2.92150023 0.74715172
H 8.26959993 4.22552243 1.73752606
H 6.01069408 3.24287934 1.91367087
C -0.28839435 -0.03117661 -0.23465567
N 0.44662759 1.03135390 -0.59617813
O 1.74750630 0.63341392 -0.58837670
C 1.83216411 -0.65776540 -0.22821719
C 0.56435461 -1.14764381 0.01388009
C 3.15425192 -1.26469721 -0.16140217
N 3.33164826 -2.54453059 0.19771130
O 4.66947569 -2.77835778 0.14679736
C 5.32816629 -1.66460515 -0.21696908
C 4.41182154 -0.65410999 -0.43934691
H 4.59594536 0.34917263 -0.79308191
H 0.29941449 -2.14922856 0.31948999
C -5.99358238 2.32559731 1.46912792
C -6.61200587 1.47248163 0.53305257
C -7.86002913 1.84088032 -0.00841541
C -8.46923159 3.03063716 0.38361993
C -7.84956655 3.87511711 1.30812981
C -6.61051546 3.51658212 1.84489795
N -5.98723681 0.25834550 0.14155789
C -6.77969682 -0.88209763 -0.15656007
C -6.38021029 -1.78833357 -1.15942394
C -7.16056355 -2.90670145 -1.44322410
C -8.34923107 -3.13902240 -0.74677462
C -8.75236989 -2.24119958 0.24482090
C -7.97769777 -1.12330797 0.54569242
C -4.57386824 0.18484417 0.04895558
C -3.89468145 -1.01158719 0.35840848
C -2.50906175 -1.07910726 0.26206545
C -1.75194966 0.03798072 -0.13621356
C -2.43563487 1.23079862 -0.44036205
C -3.82034459 1.30731406 -0.35462929
H -4.45772604 -1.88271788 0.68109335
H -2.00525957 -2.00977958 0.51048973
H -1.86821675 2.10133195 -0.75781552
H -4.32862508 2.23371781 -0.60706467
H -5.46437485 -1.60812849 -1.71516951
H -6.84344388 -3.59642591 -2.22116631
H -8.95542096 -4.01088967 -0.97465259
H -9.67248446 -2.41809332 0.79584253
H -8.29206024 -0.43716339 1.32703597
H -8.34274075 1.19634867 -0.73758704
H -9.43014584 3.30541620 -0.04377817
H -6.12493957 4.16459220 2.56998543
H -5.03644706 2.04811524 1.90152426
H 10.61788463 -2.18833097 -1.26026424
H -8.32750680 4.80334406 1.60733490
*
$new_job
# 
!wB97X-D3 def2-TZVP def2/J RIJCOSX Grid5 FinalGrid6 TightSCF
%pal 
 nprocs 24
end
%elprop
   dipole     true
   quadrupole true
end
%tddft
  Mode sTDDFT
  nroots 2
  Ethresh 10.0
  maxcore 5000
end
* xyz 0 1 
C 6.80699810 2.66331192 1.45529921
C 6.53468701 1.38333102 0.97898343
C 7.57171675 0.63924981 0.38619456
C 8.87424658 1.21012304 0.33166030
C 9.14913485 2.50260245 0.80419154
C 8.09392632 3.22193465 1.35973175
C 7.68238081 -0.69539932 -0.17762771
C 9.05715776 -0.87456546 -0.50644863
N 9.74864177 0.28790470 -0.21733216
C 9.56466139 -2.07864710 -1.01782196
C 8.66816660 -3.13187572 -1.18666168
C 7.30718717 -2.97921212 -0.88656564
C 6.78154756 -1.76742125 -0.40346157
H 6.62965430 -3.81127504 -1.05600125
H 10.74428573 0.42377889 -0.34277456
H 9.02380617 -4.08448560 -1.56888487
H 5.53732666 0.96855917 1.08778563
H 10.15018357 2.92150023 0.74715172
H 8.26959993 4.22552243 1.73752606
H 6.01069408 3.24287934 1.91367087
C -0.28839435 -0.03117661 -0.23465567
N 0.44662759 1.03135390 -0.59617813
O 1.74750630 0.63341392 -0.58837670
C 1.83216411 -0.65776540 -0.22821719
C 0.56435461 -1.14764381 0.01388009
C 3.15425192 -1.26469721 -0.16140217
N 3.33164826 -2.54453059 0.19771130
O 4.66947569 -2.77835778 0.14679736
C 5.32816629 -1.66460515 -0.21696908
C 4.41182154 -0.65410999 -0.43934691
H 4.59594536 0.34917263 -0.79308191
H 0.29941449 -2.14922856 0.31948999
C -5.99358238 2.32559731 1.46912792
C -6.61200587 1.47248163 0.53305257
C -7.86002913 1.84088032 -0.00841541
C -8.46923159 3.03063716 0.38361993
C -7.84956655 3.87511711 1.30812981
C -6.61051546 3.51658212 1.84489795
N -5.98723681 0.25834550 0.14155789
C -6.77969682 -0.88209763 -0.15656007
C -6.38021029 -1.78833357 -1.15942394
C -7.16056355 -2.90670145 -1.44322410
C -8.34923107 -3.13902240 -0.74677462
C -8.75236989 -2.24119958 0.24482090
C -7.97769777 -1.12330797 0.54569242
C -4.57386824 0.18484417 0.04895558
C -3.89468145 -1.01158719 0.35840848
C -2.50906175 -1.07910726 0.26206545
C -1.75194966 0.03798072 -0.13621356
C -2.43563487 1.23079862 -0.44036205
C -3.82034459 1.30731406 -0.35462929
H -4.45772604 -1.88271788 0.68109335
H -2.00525957 -2.00977958 0.51048973
H -1.86821675 2.10133195 -0.75781552
H -4.32862508 2.23371781 -0.60706467
H -5.46437485 -1.60812849 -1.71516951
H -6.84344388 -3.59642591 -2.22116631
H -8.95542096 -4.01088967 -0.97465259
H -9.67248446 -2.41809332 0.79584253
H -8.29206024 -0.43716339 1.32703597
H -8.34274075 1.19634867 -0.73758704
H -9.43014584 3.30541620 -0.04377817
H -6.12493957 4.16459220 2.56998543
H -5.03644706 2.04811524 1.90152426
H 10.61788463 -2.18833097 -1.26026424
H -8.32750680 4.80334406 1.60733490
*
