# 
!wB97X-D3 def2-TZVP def2/J RIJCOSX Grid5 FinalGrid6 TightSCF
%pal 
 nprocs 24
end
%tddft
  Mode sTDDFT
  nroots 2
  Ethresh 10.0
  maxcore 5000
  triplets true
end
* xyz 0 1 
C 7.32005621 3.82037142 -0.42972854
C 6.91115384 2.49043382 -0.37612620
C 7.88522841 1.47368633 -0.37154222
C 9.25695147 1.85104663 -0.41174718
C 9.67155751 3.19028320 -0.47284670
C 8.68115550 4.16909170 -0.48227939
C 7.85713923 0.02096618 -0.29810682
C 9.22100641 -0.39783412 -0.27905824
N 10.04091122 0.71151690 -0.36529094
C 9.61022374 -1.74044994 -0.16459272
C 8.59915853 -2.69226500 -0.04950491
C 7.25133723 -2.31313053 -0.06292838
C 6.84319596 -0.97236096 -0.20354030
H 6.48987685 -3.08604080 0.01317593
H 11.05331666 0.69303912 -0.35975613
H 8.85548080 -3.74323550 0.04859660
H 5.85328719 2.24710623 -0.34243905
H 10.72590901 3.45145144 -0.50644706
H 8.96361961 5.21752456 -0.52884808
H 6.57205247 4.60841790 -0.43480913
S 0.91940198 -2.22903931 0.95498682
C -0.69442616 -1.54879117 0.63249584
N -0.65325423 -0.41816849 -0.06897105
N 0.60741244 -0.02141598 -0.39287655
C 1.55642876 -0.83574124 0.05222316
C 2.97379437 -0.63546606 -0.15713868
N 3.49533826 0.38408620 -0.82688837
N 4.85990690 0.35159791 -0.88537372
C 5.40795935 -0.68028477 -0.26269982
S 4.19098447 -1.75917885 0.47169404
C -7.76056095 0.42684294 1.04594948
C -9.11183282 0.74754594 1.15771368
C -10.07893347 -0.25941867 1.12452749
C -9.68713841 -1.59322089 0.99707573
C -8.33587978 -1.91879412 0.89393296
C -7.35585045 -0.91214710 0.89922368
C -5.91535488 -1.28556772 0.81209901
C -4.95162488 -0.48086974 0.05295683
N -3.63989333 -0.70199847 0.13434513
C -3.23663143 -1.76980625 0.89540503
C -4.19379142 -2.64595988 1.52722989
N -5.54448898 -2.36550399 1.49539318
C -1.90249995 -2.17557724 1.09812189
S -1.87145360 -3.64198946 2.05289255
C -3.60027306 -3.71746129 2.19296674
C -5.37798076 0.59645199 -0.88164189
C -4.58319961 1.74873671 -1.01141753
C -4.94479797 2.76341367 -1.89507210
C -6.09570511 2.63661830 -2.67523141
C -6.87720695 1.48347567 -2.57633073
C -6.52365693 0.46973975 -1.68828262
H -7.12689396 -0.43314325 -1.63524144
H -7.76316844 1.37168729 -3.19612889
H -6.37715729 3.42769327 -3.36551816
H -4.32631281 3.65336097 -1.97953456
H -3.68415155 1.83988615 -0.40769247
H -8.02691289 -2.95655344 0.79798739
H -10.43647751 -2.38072760 0.98102120
H -11.13270183 -0.00576592 1.20590161
H -9.41148608 1.78597482 1.27304429
H -7.01373984 1.21571874 1.08882727
H 10.65887302 -2.02398753 -0.15543171
H -4.09728007 -4.50597049 2.74367625
*
$new_job
# 
!wB97X-D3 def2-TZVP def2/J RIJCOSX Grid5 FinalGrid6 TightSCF
%pal 
 nprocs 24
end
%elprop
   dipole     true
   quadrupole true
end
%tddft
  Mode sTDDFT
  nroots 2
  Ethresh 10.0
  maxcore 5000
end
* xyz 0 1 
C 7.32005621 3.82037142 -0.42972854
C 6.91115384 2.49043382 -0.37612620
C 7.88522841 1.47368633 -0.37154222
C 9.25695147 1.85104663 -0.41174718
C 9.67155751 3.19028320 -0.47284670
C 8.68115550 4.16909170 -0.48227939
C 7.85713923 0.02096618 -0.29810682
C 9.22100641 -0.39783412 -0.27905824
N 10.04091122 0.71151690 -0.36529094
C 9.61022374 -1.74044994 -0.16459272
C 8.59915853 -2.69226500 -0.04950491
C 7.25133723 -2.31313053 -0.06292838
C 6.84319596 -0.97236096 -0.20354030
H 6.48987685 -3.08604080 0.01317593
H 11.05331666 0.69303912 -0.35975613
H 8.85548080 -3.74323550 0.04859660
H 5.85328719 2.24710623 -0.34243905
H 10.72590901 3.45145144 -0.50644706
H 8.96361961 5.21752456 -0.52884808
H 6.57205247 4.60841790 -0.43480913
S 0.91940198 -2.22903931 0.95498682
C -0.69442616 -1.54879117 0.63249584
N -0.65325423 -0.41816849 -0.06897105
N 0.60741244 -0.02141598 -0.39287655
C 1.55642876 -0.83574124 0.05222316
C 2.97379437 -0.63546606 -0.15713868
N 3.49533826 0.38408620 -0.82688837
N 4.85990690 0.35159791 -0.88537372
C 5.40795935 -0.68028477 -0.26269982
S 4.19098447 -1.75917885 0.47169404
C -7.76056095 0.42684294 1.04594948
C -9.11183282 0.74754594 1.15771368
C -10.07893347 -0.25941867 1.12452749
C -9.68713841 -1.59322089 0.99707573
C -8.33587978 -1.91879412 0.89393296
C -7.35585045 -0.91214710 0.89922368
C -5.91535488 -1.28556772 0.81209901
C -4.95162488 -0.48086974 0.05295683
N -3.63989333 -0.70199847 0.13434513
C -3.23663143 -1.76980625 0.89540503
C -4.19379142 -2.64595988 1.52722989
N -5.54448898 -2.36550399 1.49539318
C -1.90249995 -2.17557724 1.09812189
S -1.87145360 -3.64198946 2.05289255
C -3.60027306 -3.71746129 2.19296674
C -5.37798076 0.59645199 -0.88164189
C -4.58319961 1.74873671 -1.01141753
C -4.94479797 2.76341367 -1.89507210
C -6.09570511 2.63661830 -2.67523141
C -6.87720695 1.48347567 -2.57633073
C -6.52365693 0.46973975 -1.68828262
H -7.12689396 -0.43314325 -1.63524144
H -7.76316844 1.37168729 -3.19612889
H -6.37715729 3.42769327 -3.36551816
H -4.32631281 3.65336097 -1.97953456
H -3.68415155 1.83988615 -0.40769247
H -8.02691289 -2.95655344 0.79798739
H -10.43647751 -2.38072760 0.98102120
H -11.13270183 -0.00576592 1.20590161
H -9.41148608 1.78597482 1.27304429
H -7.01373984 1.21571874 1.08882727
H 10.65887302 -2.02398753 -0.15543171
H -4.09728007 -4.50597049 2.74367625
*
