# 
!wB97X-D3 def2-TZVP def2/J RIJCOSX Grid5 FinalGrid6 TightSCF
%pal 
 nprocs 24
end
%tddft
  Mode sTDDFT
  nroots 2
  Ethresh 10.0
  maxcore 5000
  triplets true
end
* xyz 0 1 
C -4.32744564 2.02714822 -2.71862287
C -3.91599245 1.12335315 -1.74250312
C -4.87887837 0.31813315 -1.10467227
C -6.24345687 0.47012901 -1.47953224
C -6.65993854 1.37514080 -2.46782897
C -5.68004115 2.15060069 -3.08226353
C -4.84731158 -0.68794962 -0.05429034
C -6.20376915 -1.07488797 0.15993357
N -7.02000233 -0.38276959 -0.71491916
C -6.59204159 -2.00183803 1.13832803
C -5.58926513 -2.54599206 1.93808875
C -4.24887837 -2.18502802 1.75401215
C -3.83946477 -1.27597808 0.75923215
H -3.49234018 -2.64290769 2.38724528
H -8.02835365 -0.46247569 -0.76205870
H -5.84585254 -3.26228047 2.71326181
H -2.86433448 1.04267548 -1.48367138
H -7.70827764 1.46928931 -2.73819948
H -5.96432108 2.86297730 -3.85223957
H -3.58796233 2.64996899 -3.21453030
S 2.65591877 -0.15175850 0.02559012
C 1.39483391 -0.62533669 1.17801057
N 1.86076555 -0.87213378 2.39686969
N 3.21112498 -0.71050298 2.50819195
C 3.79191864 -0.33693476 1.37138745
C 0.00157341 -0.72664172 0.81087518
N -0.45794931 -0.48363004 -0.40995030
N -1.81152575 -0.64353394 -0.51975967
C -2.40670398 -1.00289033 0.60749372
S -1.26027257 -1.19431144 1.95847616
S 5.80961326 0.40037745 -0.39172052
C 7.53041010 0.51932247 0.09048981
S 7.82078259 0.11845269 1.81050189
C 6.14013919 -0.21983378 2.20466340
C 5.21123035 -0.09688957 1.21582931
C 8.52025087 0.87887070 -0.76535288
S 10.23808655 0.99730997 -0.28267389
C 10.82762460 1.49113723 -1.88104070
C 9.92263726 1.61749423 -2.87006746
S 8.22572134 1.27851181 -2.48277359
H 5.88310938 -0.51595522 3.21645459
H 10.17422776 1.91315943 -3.88281086
H -7.63479359 -2.27515386 1.27286529
H 11.88920451 1.67356176 -2.00801910
*
$new_job
# 
!wB97X-D3 def2-TZVP def2/J RIJCOSX Grid5 FinalGrid6 TightSCF
%pal 
 nprocs 24
end
%elprop
   dipole     true
   quadrupole true
end
%tddft
  Mode sTDDFT
  nroots 2
  Ethresh 10.0
  maxcore 5000
end
* xyz 0 1 
C -4.32744564 2.02714822 -2.71862287
C -3.91599245 1.12335315 -1.74250312
C -4.87887837 0.31813315 -1.10467227
C -6.24345687 0.47012901 -1.47953224
C -6.65993854 1.37514080 -2.46782897
C -5.68004115 2.15060069 -3.08226353
C -4.84731158 -0.68794962 -0.05429034
C -6.20376915 -1.07488797 0.15993357
N -7.02000233 -0.38276959 -0.71491916
C -6.59204159 -2.00183803 1.13832803
C -5.58926513 -2.54599206 1.93808875
C -4.24887837 -2.18502802 1.75401215
C -3.83946477 -1.27597808 0.75923215
H -3.49234018 -2.64290769 2.38724528
H -8.02835365 -0.46247569 -0.76205870
H -5.84585254 -3.26228047 2.71326181
H -2.86433448 1.04267548 -1.48367138
H -7.70827764 1.46928931 -2.73819948
H -5.96432108 2.86297730 -3.85223957
H -3.58796233 2.64996899 -3.21453030
S 2.65591877 -0.15175850 0.02559012
C 1.39483391 -0.62533669 1.17801057
N 1.86076555 -0.87213378 2.39686969
N 3.21112498 -0.71050298 2.50819195
C 3.79191864 -0.33693476 1.37138745
C 0.00157341 -0.72664172 0.81087518
N -0.45794931 -0.48363004 -0.40995030
N -1.81152575 -0.64353394 -0.51975967
C -2.40670398 -1.00289033 0.60749372
S -1.26027257 -1.19431144 1.95847616
S 5.80961326 0.40037745 -0.39172052
C 7.53041010 0.51932247 0.09048981
S 7.82078259 0.11845269 1.81050189
C 6.14013919 -0.21983378 2.20466340
C 5.21123035 -0.09688957 1.21582931
C 8.52025087 0.87887070 -0.76535288
S 10.23808655 0.99730997 -0.28267389
C 10.82762460 1.49113723 -1.88104070
C 9.92263726 1.61749423 -2.87006746
S 8.22572134 1.27851181 -2.48277359
H 5.88310938 -0.51595522 3.21645459
H 10.17422776 1.91315943 -3.88281086
H -7.63479359 -2.27515386 1.27286529
H 11.88920451 1.67356176 -2.00801910
*
