# 
!wB97X-D3 def2-TZVP def2/J RIJCOSX Grid5 FinalGrid6 TightSCF
%pal 
 nprocs 24
end
%tddft
  Mode sTDDFT
  nroots 2
  Ethresh 10.0
  maxcore 5000
  triplets true
end
* xyz 0 1 
C -4.48900866 3.02412386 0.51139260
C -3.65251389 1.93169086 0.29372198
C -4.16407058 0.79919642 -0.36633091
C -5.51207859 0.82821349 -0.82235741
C -6.35912378 1.92397188 -0.59647442
C -5.82824034 3.01801595 0.08303514
C -3.61008146 -0.47460591 -0.79533848
C -4.64321489 -1.13109702 -1.52314019
N -5.78272538 -0.34591068 -1.50383547
C -4.45608087 -2.36729921 -2.16080524
C -3.18967965 -2.94338196 -2.07652228
C -2.15848084 -2.32558673 -1.35542403
C -2.34370499 -1.10560026 -0.67954654
H -1.19170859 -2.81865064 -1.28934632
H -6.65685773 -0.57143551 -1.96250123
H -2.99821383 -3.89332569 -2.56796124
H -2.61657192 1.97216660 0.61741107
H -7.38743143 1.92249445 -0.94807584
H -6.45415959 3.88552643 0.27444768
H -4.09997574 3.90159902 1.02051461
N 3.26706736 -0.04266384 0.63766250
C 2.28330539 0.32078971 1.54117905
C 2.75062429 0.91314142 2.70856733
S 4.48279683 1.02233985 2.68197239
C 4.47775322 0.25361216 1.07806253
C 0.89004942 0.06751556 1.21620286
S 0.43739643 -0.69043852 -0.31801181
C -1.25571211 -0.56576437 0.14585327
C -1.33751874 0.00524032 1.40450250
N -0.14506201 0.35789285 1.99302878
H 2.14634874 1.26596635 3.53419672
H -2.26697889 0.15023407 1.95045858
N 4.70305998 -1.01362536 -1.59533328
C 5.77490288 -0.62103277 -0.93596088
C 7.08854253 -0.82845798 -1.56238416
N 7.12253617 -1.39936717 -2.75705845
S 5.33408751 -1.74623186 -3.21565492
C 8.24993419 -0.39719010 -0.83506645
C 8.07717022 0.18210540 0.39803705
N 6.85368689 0.38447106 1.00050425
C 5.73421738 0.00922290 0.38346464
H 8.94570898 0.51851774 0.97100759
H -5.26097551 -2.84652050 -2.71074562
H 9.24108160 -0.53026226 -1.25894792
*
$new_job
# 
!wB97X-D3 def2-TZVP def2/J RIJCOSX Grid5 FinalGrid6 TightSCF
%pal 
 nprocs 24
end
%elprop
   dipole     true
   quadrupole true
end
%tddft
  Mode sTDDFT
  nroots 2
  Ethresh 10.0
  maxcore 5000
end
* xyz 0 1 
C -4.48900866 3.02412386 0.51139260
C -3.65251389 1.93169086 0.29372198
C -4.16407058 0.79919642 -0.36633091
C -5.51207859 0.82821349 -0.82235741
C -6.35912378 1.92397188 -0.59647442
C -5.82824034 3.01801595 0.08303514
C -3.61008146 -0.47460591 -0.79533848
C -4.64321489 -1.13109702 -1.52314019
N -5.78272538 -0.34591068 -1.50383547
C -4.45608087 -2.36729921 -2.16080524
C -3.18967965 -2.94338196 -2.07652228
C -2.15848084 -2.32558673 -1.35542403
C -2.34370499 -1.10560026 -0.67954654
H -1.19170859 -2.81865064 -1.28934632
H -6.65685773 -0.57143551 -1.96250123
H -2.99821383 -3.89332569 -2.56796124
H -2.61657192 1.97216660 0.61741107
H -7.38743143 1.92249445 -0.94807584
H -6.45415959 3.88552643 0.27444768
H -4.09997574 3.90159902 1.02051461
N 3.26706736 -0.04266384 0.63766250
C 2.28330539 0.32078971 1.54117905
C 2.75062429 0.91314142 2.70856733
S 4.48279683 1.02233985 2.68197239
C 4.47775322 0.25361216 1.07806253
C 0.89004942 0.06751556 1.21620286
S 0.43739643 -0.69043852 -0.31801181
C -1.25571211 -0.56576437 0.14585327
C -1.33751874 0.00524032 1.40450250
N -0.14506201 0.35789285 1.99302878
H 2.14634874 1.26596635 3.53419672
H -2.26697889 0.15023407 1.95045858
N 4.70305998 -1.01362536 -1.59533328
C 5.77490288 -0.62103277 -0.93596088
C 7.08854253 -0.82845798 -1.56238416
N 7.12253617 -1.39936717 -2.75705845
S 5.33408751 -1.74623186 -3.21565492
C 8.24993419 -0.39719010 -0.83506645
C 8.07717022 0.18210540 0.39803705
N 6.85368689 0.38447106 1.00050425
C 5.73421738 0.00922290 0.38346464
H 8.94570898 0.51851774 0.97100759
H -5.26097551 -2.84652050 -2.71074562
H 9.24108160 -0.53026226 -1.25894792
*
