# 
!wB97X-D3 def2-TZVP def2/J RIJCOSX Grid5 FinalGrid6 TightSCF
%pal 
 nprocs 24
end
%tddft
  Mode sTDDFT
  nroots 2
  Ethresh 10.0
  maxcore 5000
  triplets true
end
* xyz 0 1 
C 5.35895780 -2.04360247 -1.77871423
C 4.48485555 -1.17568639 -1.12795749
C 4.99443667 -0.28908383 -0.16156381
C 6.38395427 -0.33950610 0.14285825
C 7.26779819 -1.20655607 -0.51753390
C 6.73440824 -2.05266695 -1.48728409
C 4.41249052 0.70433551 0.72635729
C 5.47681255 1.17310234 1.54806303
N 6.65436188 0.55544666 1.16377095
C 5.28472584 2.09606361 2.58786104
C 3.98286098 2.54024026 2.81348514
C 2.91888570 2.10575837 2.01095574
C 3.10366278 1.21074777 0.94106687
H 1.92171907 2.49559348 2.20026876
H 7.55816452 0.69662358 1.59792910
H 3.78787786 3.24449060 3.61770766
H 3.42403276 -1.20452684 -1.35885450
H 8.32673023 -1.22407820 -0.27364953
H 7.38848170 -2.73917137 -2.01829426
H 4.97161942 -2.73059351 -2.52609535
N -2.53813830 0.11644311 -0.18521566
C -1.64482688 0.17750977 -1.24456405
C -2.20633167 -0.02668999 -2.49466393
S -3.91988580 -0.30647790 -2.34799328
C -3.77621385 -0.12984298 -0.58678485
C -0.24214739 0.44013555 -0.97147860
S 0.32923122 0.67598328 0.68985702
C 1.96709791 0.87864864 0.07288071
C 1.94396276 0.77726882 -1.30693876
N 0.71762974 0.53083026 -1.88140807
H -1.68110342 -0.01864493 -3.44071108
H 2.81468866 0.91610104 -1.94404255
C -7.70739027 -0.90880161 -1.86302042
N -6.46098555 -0.66318317 -1.47426015
C -6.23578130 -0.50986686 -0.13146492
C -7.31390795 -0.61344299 0.80394611
N -8.59542645 -0.86827477 0.37628205
C -8.77722223 -1.01119414 -0.93118729
C -7.05040471 -0.44977388 2.19268985
C -5.76314108 -0.19375248 2.62343348
C -4.69788710 -0.09077477 1.70599080
C -4.90428883 -0.24305385 0.33580586
H -3.69292321 0.11103996 2.06655118
H -5.56111114 -0.06874875 3.68409650
H -9.79551320 -1.21475796 -1.28359891
H -7.89012426 -1.03189114 -2.93674180
H 6.11409053 2.43681319 3.20106508
H -7.86878277 -0.52843191 2.90319900
*
$new_job
# 
!wB97X-D3 def2-TZVP def2/J RIJCOSX Grid5 FinalGrid6 TightSCF
%pal 
 nprocs 24
end
%elprop
   dipole     true
   quadrupole true
end
%tddft
  Mode sTDDFT
  nroots 2
  Ethresh 10.0
  maxcore 5000
end
* xyz 0 1 
C 5.35895780 -2.04360247 -1.77871423
C 4.48485555 -1.17568639 -1.12795749
C 4.99443667 -0.28908383 -0.16156381
C 6.38395427 -0.33950610 0.14285825
C 7.26779819 -1.20655607 -0.51753390
C 6.73440824 -2.05266695 -1.48728409
C 4.41249052 0.70433551 0.72635729
C 5.47681255 1.17310234 1.54806303
N 6.65436188 0.55544666 1.16377095
C 5.28472584 2.09606361 2.58786104
C 3.98286098 2.54024026 2.81348514
C 2.91888570 2.10575837 2.01095574
C 3.10366278 1.21074777 0.94106687
H 1.92171907 2.49559348 2.20026876
H 7.55816452 0.69662358 1.59792910
H 3.78787786 3.24449060 3.61770766
H 3.42403276 -1.20452684 -1.35885450
H 8.32673023 -1.22407820 -0.27364953
H 7.38848170 -2.73917137 -2.01829426
H 4.97161942 -2.73059351 -2.52609535
N -2.53813830 0.11644311 -0.18521566
C -1.64482688 0.17750977 -1.24456405
C -2.20633167 -0.02668999 -2.49466393
S -3.91988580 -0.30647790 -2.34799328
C -3.77621385 -0.12984298 -0.58678485
C -0.24214739 0.44013555 -0.97147860
S 0.32923122 0.67598328 0.68985702
C 1.96709791 0.87864864 0.07288071
C 1.94396276 0.77726882 -1.30693876
N 0.71762974 0.53083026 -1.88140807
H -1.68110342 -0.01864493 -3.44071108
H 2.81468866 0.91610104 -1.94404255
C -7.70739027 -0.90880161 -1.86302042
N -6.46098555 -0.66318317 -1.47426015
C -6.23578130 -0.50986686 -0.13146492
C -7.31390795 -0.61344299 0.80394611
N -8.59542645 -0.86827477 0.37628205
C -8.77722223 -1.01119414 -0.93118729
C -7.05040471 -0.44977388 2.19268985
C -5.76314108 -0.19375248 2.62343348
C -4.69788710 -0.09077477 1.70599080
C -4.90428883 -0.24305385 0.33580586
H -3.69292321 0.11103996 2.06655118
H -5.56111114 -0.06874875 3.68409650
H -9.79551320 -1.21475796 -1.28359891
H -7.89012426 -1.03189114 -2.93674180
H 6.11409053 2.43681319 3.20106508
H -7.86878277 -0.52843191 2.90319900
*
