# 
!wB97X-D3 def2-TZVP def2/J RIJCOSX Grid5 FinalGrid6 TightSCF
%pal 
 nprocs 24
end
%tddft
  Mode sTDDFT
  nroots 2
  Ethresh 10.0
  maxcore 5000
  triplets true
end
* xyz 0 1 
C 4.80250001 0.36041831 -2.89644062
C 4.15547654 0.12446876 -1.68615848
C 4.91606211 -0.26024941 -0.56537739
C 6.32764842 -0.37005322 -0.71204163
C 6.98135212 -0.13858731 -1.93200569
C 6.19617566 0.22492453 -3.02285322
C 4.62120081 -0.55851272 0.82795740
C 5.87935604 -0.80649121 1.45248032
N 6.88441898 -0.70793838 0.50889946
C 6.01389523 -1.08066793 2.82170480
C 4.85206285 -1.09294451 3.58996396
C 3.60046674 -0.86060408 3.00481325
C 3.44819910 -0.61056933 1.62810633
H 2.71184008 -0.89998681 3.62894207
H 7.87326681 -0.82651852 0.69211625
H 4.91195796 -1.29288838 4.65586539
H 3.07910967 0.24477576 -1.62031413
H 8.06043993 -0.23327465 -2.01817141
H 6.66695948 0.41360427 -3.98390661
H 4.21896800 0.65653788 -3.76372442
C -3.65262994 0.61455048 0.64731934
N -3.28148293 0.91690682 1.90280450
O -1.95296639 0.65787440 1.99792102
C -1.48421201 0.20635180 0.82012314
C -2.51973729 0.14948611 -0.08896398
C -0.06798335 -0.11864029 0.72496782
N 0.47837619 -0.57897036 -0.41058397
O 1.79872689 -0.77268611 -0.15287769
C 2.08491691 -0.43943398 1.11455142
C 0.92500008 -0.01950901 1.74090284
H 0.80299042 0.32790352 2.75624475
H -2.46487923 -0.15625074 -1.12277231
C -5.32080507 -1.46942223 -2.58698629
N -4.79255987 -0.83427647 -1.56247109
C -5.57965355 0.09553543 -0.89646193
C -6.95862474 0.30703470 -1.32551308
N -7.47017298 -0.38535982 -2.41960744
C -6.67082049 -1.23422436 -3.02718712
C -5.04058621 0.79563943 0.20143408
C -5.89872931 1.72413589 0.90326168
C -7.29510952 1.92409648 0.46445172
C -7.79234042 1.19955319 -0.65702688
N -8.03460885 2.79624171 1.14899868
S -6.93473530 3.47589274 2.47950694
N -5.48713495 2.44430357 1.94145915
H -7.06699007 -1.78229331 -3.89210752
H -4.69655105 -2.20813976 -3.10641299
H 6.98802250 -1.26576864 3.26537216
H -8.81607597 1.34402577 -0.99040254
*
$new_job
# 
!wB97X-D3 def2-TZVP def2/J RIJCOSX Grid5 FinalGrid6 TightSCF
%pal 
 nprocs 24
end
%elprop
   dipole     true
   quadrupole true
end
%tddft
  Mode sTDDFT
  nroots 2
  Ethresh 10.0
  maxcore 5000
end
* xyz 0 1 
C 4.80250001 0.36041831 -2.89644062
C 4.15547654 0.12446876 -1.68615848
C 4.91606211 -0.26024941 -0.56537739
C 6.32764842 -0.37005322 -0.71204163
C 6.98135212 -0.13858731 -1.93200569
C 6.19617566 0.22492453 -3.02285322
C 4.62120081 -0.55851272 0.82795740
C 5.87935604 -0.80649121 1.45248032
N 6.88441898 -0.70793838 0.50889946
C 6.01389523 -1.08066793 2.82170480
C 4.85206285 -1.09294451 3.58996396
C 3.60046674 -0.86060408 3.00481325
C 3.44819910 -0.61056933 1.62810633
H 2.71184008 -0.89998681 3.62894207
H 7.87326681 -0.82651852 0.69211625
H 4.91195796 -1.29288838 4.65586539
H 3.07910967 0.24477576 -1.62031413
H 8.06043993 -0.23327465 -2.01817141
H 6.66695948 0.41360427 -3.98390661
H 4.21896800 0.65653788 -3.76372442
C -3.65262994 0.61455048 0.64731934
N -3.28148293 0.91690682 1.90280450
O -1.95296639 0.65787440 1.99792102
C -1.48421201 0.20635180 0.82012314
C -2.51973729 0.14948611 -0.08896398
C -0.06798335 -0.11864029 0.72496782
N 0.47837619 -0.57897036 -0.41058397
O 1.79872689 -0.77268611 -0.15287769
C 2.08491691 -0.43943398 1.11455142
C 0.92500008 -0.01950901 1.74090284
H 0.80299042 0.32790352 2.75624475
H -2.46487923 -0.15625074 -1.12277231
C -5.32080507 -1.46942223 -2.58698629
N -4.79255987 -0.83427647 -1.56247109
C -5.57965355 0.09553543 -0.89646193
C -6.95862474 0.30703470 -1.32551308
N -7.47017298 -0.38535982 -2.41960744
C -6.67082049 -1.23422436 -3.02718712
C -5.04058621 0.79563943 0.20143408
C -5.89872931 1.72413589 0.90326168
C -7.29510952 1.92409648 0.46445172
C -7.79234042 1.19955319 -0.65702688
N -8.03460885 2.79624171 1.14899868
S -6.93473530 3.47589274 2.47950694
N -5.48713495 2.44430357 1.94145915
H -7.06699007 -1.78229331 -3.89210752
H -4.69655105 -2.20813976 -3.10641299
H 6.98802250 -1.26576864 3.26537216
H -8.81607597 1.34402577 -0.99040254
*
