# 
!wB97X-D3 def2-TZVP def2/J RIJCOSX Grid5 FinalGrid6 TightSCF
%pal 
 nprocs 24
end
%tddft
  Mode sTDDFT
  nroots 2
  Ethresh 10.0
  maxcore 5000
  triplets true
end
* xyz 0 1 
C -4.74025973 -2.56662602 1.36541506
C -4.02149239 -1.52193690 0.79016818
C -4.71819871 -0.40849145 0.28299709
C -6.13737713 -0.39242597 0.38985826
C -6.86461690 -1.44703978 0.96272076
C -6.14355238 -2.53501150 1.44790419
C -4.33561146 0.84746207 -0.34357640
C -5.55032443 1.56282528 -0.56342564
N -6.61668903 0.79559306 -0.13347942
C -5.59268239 2.85270913 -1.11262527
C -4.37659302 3.45052472 -1.43674405
C -3.16721530 2.77533089 -1.23118007
C -3.10884217 1.47000445 -0.70543405
H -2.23899665 3.26818323 -1.51133350
H -7.58933178 1.07553242 -0.16439576
H -4.36221568 4.45173066 -1.85764205
H -2.93814005 -1.57286031 0.73318300
H -7.94874607 -1.41166879 1.02888995
H -6.67206910 -3.37076906 1.89882484
H -4.20717288 -3.42857503 1.75726193
S 2.82111317 -1.46524299 -0.25649505
C 4.31974501 -0.52405930 -0.07791353
N 4.11320440 0.79033108 -0.04199492
N 2.80054434 1.13676424 -0.14922894
C 1.98164832 0.09827878 -0.26906297
C 0.54818657 0.20997907 -0.39680086
N -0.26416495 -0.83232729 -0.52129756
N -1.58107930 -0.48147685 -0.62658407
C -1.79836443 0.82446349 -0.57898435
S -0.29478332 1.76467454 -0.40581414
C 5.61358145 -1.14929117 0.01597054
S 5.79397455 -2.88692972 -0.04063633
C 7.51883040 -2.82652822 0.12240526
C 7.95672733 -1.50584520 0.21891019
C 6.87845714 -0.54448952 0.15916620
N 9.27245080 -1.10479219 0.35829963
C 9.45912272 0.20237248 0.43085426
C 8.38467476 1.15698480 0.37115749
N 7.11424372 0.80887464 0.23825070
H 10.49016060 0.56132038 0.54197562
H 8.61249199 2.22785620 0.43755002
H -6.53640456 3.36779837 -1.26819346
H 8.12566655 -3.72290669 0.14097921
*
$new_job
# 
!wB97X-D3 def2-TZVP def2/J RIJCOSX Grid5 FinalGrid6 TightSCF
%pal 
 nprocs 24
end
%elprop
   dipole     true
   quadrupole true
end
%tddft
  Mode sTDDFT
  nroots 2
  Ethresh 10.0
  maxcore 5000
end
* xyz 0 1 
C -4.74025973 -2.56662602 1.36541506
C -4.02149239 -1.52193690 0.79016818
C -4.71819871 -0.40849145 0.28299709
C -6.13737713 -0.39242597 0.38985826
C -6.86461690 -1.44703978 0.96272076
C -6.14355238 -2.53501150 1.44790419
C -4.33561146 0.84746207 -0.34357640
C -5.55032443 1.56282528 -0.56342564
N -6.61668903 0.79559306 -0.13347942
C -5.59268239 2.85270913 -1.11262527
C -4.37659302 3.45052472 -1.43674405
C -3.16721530 2.77533089 -1.23118007
C -3.10884217 1.47000445 -0.70543405
H -2.23899665 3.26818323 -1.51133350
H -7.58933178 1.07553242 -0.16439576
H -4.36221568 4.45173066 -1.85764205
H -2.93814005 -1.57286031 0.73318300
H -7.94874607 -1.41166879 1.02888995
H -6.67206910 -3.37076906 1.89882484
H -4.20717288 -3.42857503 1.75726193
S 2.82111317 -1.46524299 -0.25649505
C 4.31974501 -0.52405930 -0.07791353
N 4.11320440 0.79033108 -0.04199492
N 2.80054434 1.13676424 -0.14922894
C 1.98164832 0.09827878 -0.26906297
C 0.54818657 0.20997907 -0.39680086
N -0.26416495 -0.83232729 -0.52129756
N -1.58107930 -0.48147685 -0.62658407
C -1.79836443 0.82446349 -0.57898435
S -0.29478332 1.76467454 -0.40581414
C 5.61358145 -1.14929117 0.01597054
S 5.79397455 -2.88692972 -0.04063633
C 7.51883040 -2.82652822 0.12240526
C 7.95672733 -1.50584520 0.21891019
C 6.87845714 -0.54448952 0.15916620
N 9.27245080 -1.10479219 0.35829963
C 9.45912272 0.20237248 0.43085426
C 8.38467476 1.15698480 0.37115749
N 7.11424372 0.80887464 0.23825070
H 10.49016060 0.56132038 0.54197562
H 8.61249199 2.22785620 0.43755002
H -6.53640456 3.36779837 -1.26819346
H 8.12566655 -3.72290669 0.14097921
*
