# 
!wB97X-D3 def2-TZVP def2/J RIJCOSX Grid5 FinalGrid6 TightSCF
%pal 
 nprocs 24
end
%tddft
  Mode sTDDFT
  nroots 2
  Ethresh 10.0
  maxcore 5000
  triplets true
end
* xyz 0 1 
C 8.11668002 2.60328531 -0.59079805
C 7.45958042 1.37544724 -0.57151511
C 8.21188253 0.19371509 -0.70971058
C 9.62355689 0.30318512 -0.85414184
C 10.28739352 1.53916589 -0.88113770
C 9.51120095 2.68790633 -0.74805736
C 7.90384457 -1.22846741 -0.71125501
C 9.15523322 -1.90100737 -0.83874715
N 10.16872781 -0.96593687 -0.94024064
C 9.28009939 -3.29811459 -0.83176299
C 8.11296001 -4.04302394 -0.67556094
C 6.86958931 -3.41187948 -0.54609489
C 6.72400955 -2.01149363 -0.57721257
H 5.97929481 -4.02762794 -0.44065131
H 11.15494767 -1.17867417 -1.02588626
H 8.16367008 -5.12800973 -0.65655546
H 6.38047419 1.33627247 -0.45487863
H 11.36663583 1.59558878 -0.99609932
H 9.99000203 3.66354578 -0.76365275
H 7.54040629 3.51847721 -0.48516524
S 0.58240636 0.50163681 -0.26876366
C -0.74071062 -0.37021570 0.53846565
N -0.35806753 -1.54606291 1.02736657
N 0.96403738 -1.82604583 0.83160456
C 1.61063637 -0.86961109 0.17546847
C 3.01661077 -0.93852553 -0.15049282
N 3.67038841 0.00242401 -0.81891013
N 4.99523036 -0.28863989 -1.00846164
C 5.37406941 -1.44453401 -0.48695702
S 4.03525188 -2.31287264 0.30724125
C -4.73076862 1.15895850 0.93445269
C -3.80525578 1.85051146 0.13229973
C -2.48733614 1.34350940 -0.00473373
C -2.09728836 0.15465686 0.67123839
C -3.05593340 -0.54447775 1.45591416
C -4.37702599 -0.03637018 1.58044519
N -2.67354253 -1.65877063 2.22297878
C -3.22296532 -2.82442424 2.14069902
C -2.80380024 -3.90641667 3.10245622
N -5.27464244 -0.67830982 2.47255350
C -6.48913200 -0.98199144 2.14877770
C -7.09400329 -0.80837119 0.76566779
N -4.11760396 3.12049946 -0.41615746
C -5.20104619 3.35532022 -1.08290331
C -6.22507715 2.30813630 -1.48728020
N -1.51397737 2.07879445 -0.71079964
C -1.64001434 2.47074997 -1.93911278
C -2.76159946 2.05857442 -2.86981089
C -4.23981001 -3.22386128 1.08788143
C -7.39122584 -1.59946042 3.18823056
C -5.47787217 4.76111970 -1.55533785
C -0.56420679 3.33854409 -2.53922218
H -5.21621209 -3.39361770 1.54263675
H -3.94046393 -4.15363041 0.60559429
H -4.34738681 -2.45353491 0.32839197
H -2.35023156 -4.74097640 2.56717017
H -2.08772082 -3.53007539 3.82654475
H -3.66809461 -4.30176124 3.63681877
H -0.10157199 2.84333924 -3.39329685
H -0.98618076 4.27515804 -2.90434738
H 0.20755272 3.56574159 -1.80987739
H -3.41041424 2.90576207 -3.09312847
H -3.36959869 1.26938110 -2.43506135
H -2.35169192 1.70704718 -3.81619265
H -6.58631873 2.50235715 -2.49564110
H -5.80456214 1.30590381 -1.45030795
H -7.08978360 2.33477131 -0.82368560
H -4.71025756 5.44816009 -1.21226766
H -6.44437753 5.10715149 -1.18876045
H -5.51936209 4.80079882 -2.64456272
H -6.89154085 -1.66805356 4.14975785
H -8.30029781 -1.01006796 3.30857878
H -7.70005764 -2.60034442 2.88421208
H -6.32339629 -0.71537887 0.00403753
H -7.73131412 -1.65636124 0.52158305
H -7.71629458 0.08607586 0.72533242
H 10.24964752 -3.77772183 -0.93269906
H -5.71618438 1.58344766 1.10089566
*
$new_job
# 
!wB97X-D3 def2-TZVP def2/J RIJCOSX Grid5 FinalGrid6 TightSCF
%pal 
 nprocs 24
end
%elprop
   dipole     true
   quadrupole true
end
%tddft
  Mode sTDDFT
  nroots 2
  Ethresh 10.0
  maxcore 5000
end
* xyz 0 1 
C 8.11668002 2.60328531 -0.59079805
C 7.45958042 1.37544724 -0.57151511
C 8.21188253 0.19371509 -0.70971058
C 9.62355689 0.30318512 -0.85414184
C 10.28739352 1.53916589 -0.88113770
C 9.51120095 2.68790633 -0.74805736
C 7.90384457 -1.22846741 -0.71125501
C 9.15523322 -1.90100737 -0.83874715
N 10.16872781 -0.96593687 -0.94024064
C 9.28009939 -3.29811459 -0.83176299
C 8.11296001 -4.04302394 -0.67556094
C 6.86958931 -3.41187948 -0.54609489
C 6.72400955 -2.01149363 -0.57721257
H 5.97929481 -4.02762794 -0.44065131
H 11.15494767 -1.17867417 -1.02588626
H 8.16367008 -5.12800973 -0.65655546
H 6.38047419 1.33627247 -0.45487863
H 11.36663583 1.59558878 -0.99609932
H 9.99000203 3.66354578 -0.76365275
H 7.54040629 3.51847721 -0.48516524
S 0.58240636 0.50163681 -0.26876366
C -0.74071062 -0.37021570 0.53846565
N -0.35806753 -1.54606291 1.02736657
N 0.96403738 -1.82604583 0.83160456
C 1.61063637 -0.86961109 0.17546847
C 3.01661077 -0.93852553 -0.15049282
N 3.67038841 0.00242401 -0.81891013
N 4.99523036 -0.28863989 -1.00846164
C 5.37406941 -1.44453401 -0.48695702
S 4.03525188 -2.31287264 0.30724125
C -4.73076862 1.15895850 0.93445269
C -3.80525578 1.85051146 0.13229973
C -2.48733614 1.34350940 -0.00473373
C -2.09728836 0.15465686 0.67123839
C -3.05593340 -0.54447775 1.45591416
C -4.37702599 -0.03637018 1.58044519
N -2.67354253 -1.65877063 2.22297878
C -3.22296532 -2.82442424 2.14069902
C -2.80380024 -3.90641667 3.10245622
N -5.27464244 -0.67830982 2.47255350
C -6.48913200 -0.98199144 2.14877770
C -7.09400329 -0.80837119 0.76566779
N -4.11760396 3.12049946 -0.41615746
C -5.20104619 3.35532022 -1.08290331
C -6.22507715 2.30813630 -1.48728020
N -1.51397737 2.07879445 -0.71079964
C -1.64001434 2.47074997 -1.93911278
C -2.76159946 2.05857442 -2.86981089
C -4.23981001 -3.22386128 1.08788143
C -7.39122584 -1.59946042 3.18823056
C -5.47787217 4.76111970 -1.55533785
C -0.56420679 3.33854409 -2.53922218
H -5.21621209 -3.39361770 1.54263675
H -3.94046393 -4.15363041 0.60559429
H -4.34738681 -2.45353491 0.32839197
H -2.35023156 -4.74097640 2.56717017
H -2.08772082 -3.53007539 3.82654475
H -3.66809461 -4.30176124 3.63681877
H -0.10157199 2.84333924 -3.39329685
H -0.98618076 4.27515804 -2.90434738
H 0.20755272 3.56574159 -1.80987739
H -3.41041424 2.90576207 -3.09312847
H -3.36959869 1.26938110 -2.43506135
H -2.35169192 1.70704718 -3.81619265
H -6.58631873 2.50235715 -2.49564110
H -5.80456214 1.30590381 -1.45030795
H -7.08978360 2.33477131 -0.82368560
H -4.71025756 5.44816009 -1.21226766
H -6.44437753 5.10715149 -1.18876045
H -5.51936209 4.80079882 -2.64456272
H -6.89154085 -1.66805356 4.14975785
H -8.30029781 -1.01006796 3.30857878
H -7.70005764 -2.60034442 2.88421208
H -6.32339629 -0.71537887 0.00403753
H -7.73131412 -1.65636124 0.52158305
H -7.71629458 0.08607586 0.72533242
H 10.24964752 -3.77772183 -0.93269906
H -5.71618438 1.58344766 1.10089566
*
