# 
!wB97X-D3 def2-TZVP def2/J RIJCOSX Grid5 FinalGrid6 TightSCF
%pal 
 nprocs 24
end
%tddft
  Mode sTDDFT
  nroots 2
  Ethresh 10.0
  maxcore 5000
  triplets true
end
* xyz 0 1 
C -4.81419023 2.69092429 -1.21561744
C -3.93824956 1.69530028 -0.79105446
C -4.45414863 0.43492697 -0.43288035
C -5.85736647 0.22310211 -0.54270992
C -6.74281507 1.22664046 -0.96472903
C -6.19955553 2.46500339 -1.29603028
C -3.88048793 -0.82441390 0.01665361
C -4.97131672 -1.73693776 0.12771751
N -6.14644484 -1.08418936 -0.19258733
C -4.81005677 -3.08283864 0.48907211
C -3.51374788 -3.53015655 0.73338189
C -2.42217447 -2.65688280 0.63986099
C -2.57223109 -1.29822278 0.30417619
H -1.42656250 -3.03280488 0.85962557
H -7.06660636 -1.50684068 -0.20450410
H -3.34332602 -4.56701439 1.00828811
H -2.87363658 1.90013696 -0.74678643
H -7.81094488 1.04001172 -1.03586892
H -6.85381880 3.26657503 -1.62803600
H -4.42009387 3.66495245 -1.49163432
C 4.27678606 0.73402098 -0.07866059
N 3.88060854 1.98511955 0.20102339
O 2.53272798 1.94800735 0.34015201
C 2.07984285 0.69517703 0.15224981
C 3.14649894 -0.13568325 -0.12073181
C 0.64874132 0.44679262 0.25963343
N -0.22511219 1.42408827 0.54265946
O -1.45522582 0.84776783 0.56179788
C -1.36645108 -0.46317187 0.29333288
C -0.03641520 -0.79138170 0.09868708
H 0.38203198 -1.75708228 -0.14448271
H 3.13416423 -1.19697012 -0.32026224
N 6.54783848 2.64396652 0.03500957
C 6.75174447 1.36830673 -0.22776189
C 8.13424954 0.92577086 -0.46140403
N 9.09782915 1.83113614 -0.39525326
S 8.25100791 3.46050607 0.00410850
C 8.34897028 -0.46627884 -0.74739900
C 7.26198704 -1.30075271 -0.78684775
N 5.95730153 -0.90125352 -0.56976457
C 5.68159981 0.37033304 -0.29984088
H 7.39733338 -2.36471167 -1.00234369
H -5.66314256 -3.75100842 0.56521045
H 9.35295759 -0.83997052 -0.92694941
*
$new_job
# 
!wB97X-D3 def2-TZVP def2/J RIJCOSX Grid5 FinalGrid6 TightSCF
%pal 
 nprocs 24
end
%elprop
   dipole     true
   quadrupole true
end
%tddft
  Mode sTDDFT
  nroots 2
  Ethresh 10.0
  maxcore 5000
end
* xyz 0 1 
C -4.81419023 2.69092429 -1.21561744
C -3.93824956 1.69530028 -0.79105446
C -4.45414863 0.43492697 -0.43288035
C -5.85736647 0.22310211 -0.54270992
C -6.74281507 1.22664046 -0.96472903
C -6.19955553 2.46500339 -1.29603028
C -3.88048793 -0.82441390 0.01665361
C -4.97131672 -1.73693776 0.12771751
N -6.14644484 -1.08418936 -0.19258733
C -4.81005677 -3.08283864 0.48907211
C -3.51374788 -3.53015655 0.73338189
C -2.42217447 -2.65688280 0.63986099
C -2.57223109 -1.29822278 0.30417619
H -1.42656250 -3.03280488 0.85962557
H -7.06660636 -1.50684068 -0.20450410
H -3.34332602 -4.56701439 1.00828811
H -2.87363658 1.90013696 -0.74678643
H -7.81094488 1.04001172 -1.03586892
H -6.85381880 3.26657503 -1.62803600
H -4.42009387 3.66495245 -1.49163432
C 4.27678606 0.73402098 -0.07866059
N 3.88060854 1.98511955 0.20102339
O 2.53272798 1.94800735 0.34015201
C 2.07984285 0.69517703 0.15224981
C 3.14649894 -0.13568325 -0.12073181
C 0.64874132 0.44679262 0.25963343
N -0.22511219 1.42408827 0.54265946
O -1.45522582 0.84776783 0.56179788
C -1.36645108 -0.46317187 0.29333288
C -0.03641520 -0.79138170 0.09868708
H 0.38203198 -1.75708228 -0.14448271
H 3.13416423 -1.19697012 -0.32026224
N 6.54783848 2.64396652 0.03500957
C 6.75174447 1.36830673 -0.22776189
C 8.13424954 0.92577086 -0.46140403
N 9.09782915 1.83113614 -0.39525326
S 8.25100791 3.46050607 0.00410850
C 8.34897028 -0.46627884 -0.74739900
C 7.26198704 -1.30075271 -0.78684775
N 5.95730153 -0.90125352 -0.56976457
C 5.68159981 0.37033304 -0.29984088
H 7.39733338 -2.36471167 -1.00234369
H -5.66314256 -3.75100842 0.56521045
H 9.35295759 -0.83997052 -0.92694941
*
