# 
!wB97X-D3 def2-TZVP def2/J RIJCOSX Grid5 FinalGrid6 TightSCF
%pal 
 nprocs 24
end
%tddft
  Mode sTDDFT
  nroots 2
  Ethresh 10.0
  maxcore 5000
  triplets true
end
* xyz 0 1 
C -5.23358339 -2.55107869 1.52780904
C -4.49886817 -1.48764776 1.00979695
C -5.17626158 -0.32922564 0.58328451
C -6.59218903 -0.28471023 0.72219418
C -7.33539023 -1.35727315 1.23841517
C -6.63416487 -2.49259735 1.63573113
C -4.77479188 0.95619165 0.03213719
C -5.97331225 1.71710127 -0.10619616
N -7.05025579 0.94876548 0.29373350
C -5.98991742 3.04368617 -0.56219008
C -4.76547234 3.62887718 -0.87601193
C -3.57144078 2.90553395 -0.75795214
C -3.54269742 1.56590212 -0.32714071
H -2.63586723 3.38495655 -1.03291225
H -8.01543458 1.25491348 0.30636539
H -4.73223878 4.65688761 -1.22498545
H -3.41819211 -1.56200000 0.94660291
H -8.41660641 -1.29917401 1.33010811
H -7.17535139 -3.34307316 2.04150290
H -4.71459234 -3.44697251 1.85701379
C 3.48907570 -0.25632722 -0.11730362
N 3.33799756 1.06609727 0.04459640
O 2.00231213 1.31680230 -0.00188340
C 1.32438740 0.17175909 -0.18989369
C 2.21569971 -0.87993017 -0.27295784
C -0.12832543 0.23956256 -0.26663816
N -0.87926932 -0.85620156 -0.45463176
O -2.17256607 -0.43919003 -0.47355835
C -2.24185113 0.88878359 -0.29764882
C -0.95945091 1.39166042 -0.16830125
H -0.65726846 2.41559532 -0.00482158
H 1.98767110 -1.92519776 -0.42173876
S 6.21203452 0.23153385 0.10644446
C 7.45434009 -1.05160047 0.01359776
S 6.78031382 -2.69076391 -0.23787692
C 5.08871904 -2.17945432 -0.27151320
C 4.81603052 -0.85865204 -0.11683301
C 8.78478804 -0.80908959 0.12305972
S 10.02690520 -2.09518464 0.02974278
C 11.41057139 -1.00767212 0.25123749
C 11.15668932 0.30563918 0.40605285
S 9.46250386 0.82840901 0.37443472
H 4.32054989 -2.93244704 -0.41424808
H 11.92797247 1.05503631 0.54801584
H -6.92140348 3.59456485 -0.65646511
H 12.40850104 -1.43279584 0.25472549
*
$new_job
# 
!wB97X-D3 def2-TZVP def2/J RIJCOSX Grid5 FinalGrid6 TightSCF
%pal 
 nprocs 24
end
%elprop
   dipole     true
   quadrupole true
end
%tddft
  Mode sTDDFT
  nroots 2
  Ethresh 10.0
  maxcore 5000
end
* xyz 0 1 
C -5.23358339 -2.55107869 1.52780904
C -4.49886817 -1.48764776 1.00979695
C -5.17626158 -0.32922564 0.58328451
C -6.59218903 -0.28471023 0.72219418
C -7.33539023 -1.35727315 1.23841517
C -6.63416487 -2.49259735 1.63573113
C -4.77479188 0.95619165 0.03213719
C -5.97331225 1.71710127 -0.10619616
N -7.05025579 0.94876548 0.29373350
C -5.98991742 3.04368617 -0.56219008
C -4.76547234 3.62887718 -0.87601193
C -3.57144078 2.90553395 -0.75795214
C -3.54269742 1.56590212 -0.32714071
H -2.63586723 3.38495655 -1.03291225
H -8.01543458 1.25491348 0.30636539
H -4.73223878 4.65688761 -1.22498545
H -3.41819211 -1.56200000 0.94660291
H -8.41660641 -1.29917401 1.33010811
H -7.17535139 -3.34307316 2.04150290
H -4.71459234 -3.44697251 1.85701379
C 3.48907570 -0.25632722 -0.11730362
N 3.33799756 1.06609727 0.04459640
O 2.00231213 1.31680230 -0.00188340
C 1.32438740 0.17175909 -0.18989369
C 2.21569971 -0.87993017 -0.27295784
C -0.12832543 0.23956256 -0.26663816
N -0.87926932 -0.85620156 -0.45463176
O -2.17256607 -0.43919003 -0.47355835
C -2.24185113 0.88878359 -0.29764882
C -0.95945091 1.39166042 -0.16830125
H -0.65726846 2.41559532 -0.00482158
H 1.98767110 -1.92519776 -0.42173876
S 6.21203452 0.23153385 0.10644446
C 7.45434009 -1.05160047 0.01359776
S 6.78031382 -2.69076391 -0.23787692
C 5.08871904 -2.17945432 -0.27151320
C 4.81603052 -0.85865204 -0.11683301
C 8.78478804 -0.80908959 0.12305972
S 10.02690520 -2.09518464 0.02974278
C 11.41057139 -1.00767212 0.25123749
C 11.15668932 0.30563918 0.40605285
S 9.46250386 0.82840901 0.37443472
H 4.32054989 -2.93244704 -0.41424808
H 11.92797247 1.05503631 0.54801584
H -6.92140348 3.59456485 -0.65646511
H 12.40850104 -1.43279584 0.25472549
*
