# 
!wB97X-D3 def2-TZVP def2/J RIJCOSX Grid5 FinalGrid6 TightSCF
%pal 
 nprocs 24
end
%tddft
  Mode sTDDFT
  nroots 2
  Ethresh 10.0
  maxcore 5000
  triplets true
end
* xyz 0 1 
C -7.69600522 -2.71399887 -0.81855050
C -6.91704704 -1.60766359 -0.48954203
C -7.52483066 -0.33991221 -0.41088790
C -8.91575694 -0.23852906 -0.69553058
C -9.70405437 -1.35271253 -1.02162541
C -9.07297514 -2.59266846 -1.07518144
C -7.06049241 1.01101341 -0.13379540
C -8.19665416 1.85857760 -0.29342185
N -9.29953808 1.08834436 -0.61015106
C -8.13639445 3.25369961 -0.15900494
C -6.89569979 3.81650158 0.13122099
C -5.76249917 3.01041770 0.30130659
C -5.81377418 1.60779327 0.19532276
H -4.81463341 3.48012465 0.54987482
H -10.23085600 1.44414472 -0.78759548
H -6.80285900 4.89361892 0.23599006
H -5.85558493 -1.73450235 -0.30381143
H -10.76533285 -1.24844735 -1.23057699
H -9.65058505 -3.47846227 -1.32539301
H -7.23095398 -3.69397039 -0.87901124
C 1.12166529 -0.00959981 0.85235968
N 0.76025498 -1.22066848 1.30549891
O -0.59897822 -1.25071225 1.30256330
C -1.08693187 -0.08304818 0.85690001
C -0.03868086 0.76195289 0.54888967
C -2.53120752 0.08725225 0.77673521
N -3.38590915 -0.88160707 1.13679528
O -4.63603554 -0.38949979 0.93261901
C -4.57759717 0.86071093 0.45048033
C -3.25061193 1.23483555 0.33547072
H -2.85248277 2.17051671 -0.02901942
H -0.09047252 1.77178584 0.16726285
C 3.63346411 -0.37891013 1.01873134
C 2.51918278 0.37748770 0.72059076
S 2.98757155 1.96328227 0.12560920
C 4.68417418 1.57436177 0.29087812
C 4.87009773 0.30054378 0.77645022
C 6.22243593 -0.31926716 1.01753595
C 6.46691437 -1.54476426 0.12236740
C 7.84603683 -2.19353585 0.33707145
C 8.92398224 -1.73372181 -0.65126417
C 9.25017927 -0.23947701 -0.57723215
C 10.41035436 0.14170116 -1.48645110
H 3.56992965 -1.39139140 1.40233996
H 11.31448083 -0.39763643 -1.21175733
H 10.18498359 -0.09529849 -2.52408614
H 10.62090110 1.20693408 -1.42255468
H 6.30553731 -0.62751215 2.06738797
H 7.00149479 0.42996810 0.85260085
H 5.68357964 -2.28088294 0.32852105
H 6.34797028 -1.25943242 -0.92696477
H 7.74534506 -3.27968256 0.24245937
H 8.18532245 -2.00787953 1.36143375
H 8.36670517 0.34247048 -0.85608400
H 9.48893315 0.03265544 0.45605003
H 8.60986646 -1.98147429 -1.67069568
H 9.83759688 -2.30837022 -0.46436774
H -9.02179025 3.87003388 -0.28643475
H 5.45816464 2.28441066 0.02847358
*
$new_job
# 
!wB97X-D3 def2-TZVP def2/J RIJCOSX Grid5 FinalGrid6 TightSCF
%pal 
 nprocs 24
end
%elprop
   dipole     true
   quadrupole true
end
%tddft
  Mode sTDDFT
  nroots 2
  Ethresh 10.0
  maxcore 5000
end
* xyz 0 1 
C -7.69600522 -2.71399887 -0.81855050
C -6.91704704 -1.60766359 -0.48954203
C -7.52483066 -0.33991221 -0.41088790
C -8.91575694 -0.23852906 -0.69553058
C -9.70405437 -1.35271253 -1.02162541
C -9.07297514 -2.59266846 -1.07518144
C -7.06049241 1.01101341 -0.13379540
C -8.19665416 1.85857760 -0.29342185
N -9.29953808 1.08834436 -0.61015106
C -8.13639445 3.25369961 -0.15900494
C -6.89569979 3.81650158 0.13122099
C -5.76249917 3.01041770 0.30130659
C -5.81377418 1.60779327 0.19532276
H -4.81463341 3.48012465 0.54987482
H -10.23085600 1.44414472 -0.78759548
H -6.80285900 4.89361892 0.23599006
H -5.85558493 -1.73450235 -0.30381143
H -10.76533285 -1.24844735 -1.23057699
H -9.65058505 -3.47846227 -1.32539301
H -7.23095398 -3.69397039 -0.87901124
C 1.12166529 -0.00959981 0.85235968
N 0.76025498 -1.22066848 1.30549891
O -0.59897822 -1.25071225 1.30256330
C -1.08693187 -0.08304818 0.85690001
C -0.03868086 0.76195289 0.54888967
C -2.53120752 0.08725225 0.77673521
N -3.38590915 -0.88160707 1.13679528
O -4.63603554 -0.38949979 0.93261901
C -4.57759717 0.86071093 0.45048033
C -3.25061193 1.23483555 0.33547072
H -2.85248277 2.17051671 -0.02901942
H -0.09047252 1.77178584 0.16726285
C 3.63346411 -0.37891013 1.01873134
C 2.51918278 0.37748770 0.72059076
S 2.98757155 1.96328227 0.12560920
C 4.68417418 1.57436177 0.29087812
C 4.87009773 0.30054378 0.77645022
C 6.22243593 -0.31926716 1.01753595
C 6.46691437 -1.54476426 0.12236740
C 7.84603683 -2.19353585 0.33707145
C 8.92398224 -1.73372181 -0.65126417
C 9.25017927 -0.23947701 -0.57723215
C 10.41035436 0.14170116 -1.48645110
H 3.56992965 -1.39139140 1.40233996
H 11.31448083 -0.39763643 -1.21175733
H 10.18498359 -0.09529849 -2.52408614
H 10.62090110 1.20693408 -1.42255468
H 6.30553731 -0.62751215 2.06738797
H 7.00149479 0.42996810 0.85260085
H 5.68357964 -2.28088294 0.32852105
H 6.34797028 -1.25943242 -0.92696477
H 7.74534506 -3.27968256 0.24245937
H 8.18532245 -2.00787953 1.36143375
H 8.36670517 0.34247048 -0.85608400
H 9.48893315 0.03265544 0.45605003
H 8.60986646 -1.98147429 -1.67069568
H 9.83759688 -2.30837022 -0.46436774
H -9.02179025 3.87003388 -0.28643475
H 5.45816464 2.28441066 0.02847358
*
