# 
!wB97X-D3 def2-TZVP def2/J RIJCOSX Grid5 FinalGrid6 TightSCF
%pal 
 nprocs 24
end
%tddft
  Mode sTDDFT
  nroots 2
  Ethresh 10.0
  maxcore 5000
  triplets true
end
* xyz 0 1 
C -6.49213321 -0.83023792 -1.80095713
C -5.33404434 -0.54511303 -1.08079092
C -5.26573990 -0.90557424 0.27760716
C -6.37122191 -1.59371837 0.85334236
C -7.54226717 -1.87380267 0.13292535
C -7.58852905 -1.47373674 -1.20068940
C -4.24893432 -0.81679311 1.31285934
C -4.77820318 -1.49858037 2.44578080
N -6.06198616 -1.92934547 2.15974885
C -4.04679069 -1.69592514 3.62713109
C -2.74116720 -1.20798840 3.65799403
C -2.20154996 -0.51394639 2.56738922
C -2.93808229 -0.27474665 1.39064053
H -1.19163362 -0.11975757 2.63709881
H -6.65560023 -2.45745183 2.78745387
H -2.13470226 -1.35310278 4.54786378
H -4.49338314 -0.07300157 -1.57938501
H -8.37668943 -2.39420530 0.59552569
H -8.47842089 -1.67570023 -1.79086227
H -6.54975474 -0.55413510 -2.85028843
O 1.68640398 0.90752865 -0.24960239
C 0.79511612 1.65221690 -0.93821190
C 1.47551596 2.48245618 -1.81906701
C 2.85242892 2.19931082 -1.64466040
C 2.93584820 1.20599338 -0.67828667
C -0.61135931 1.47843513 -0.66428177
C -1.74279607 2.08620866 -1.19158288
C -2.85109239 1.49666777 -0.53251805
C -2.33334747 0.56268661 0.35361017
O -0.98337697 0.57781283 0.27117473
H -3.88944806 1.76496606 -0.65733972
H -1.76854614 2.85587990 -1.94934799
H 3.67570141 2.67514057 -2.15582897
H 1.03736711 3.20070744 -2.49711977
C 4.04840291 0.61322650 0.07578509
C 5.35123350 0.32667316 -0.47171557
C 6.40494077 -0.05381440 0.42490325
C 6.13097682 -0.21308466 1.81060907
C 4.85376488 -0.03140714 2.29670549
C 3.82407945 0.38814855 1.43537024
C 7.71728190 -0.29864270 -0.07263267
C 7.98676153 -0.22197999 -1.42164558
C 6.95047743 0.07021508 -2.33353147
C 5.66263378 0.32307017 -1.87110600
O 4.67494096 0.51967825 -2.78367133
H 7.14799804 0.07715153 -3.40268502
H 4.64111545 -0.17907395 3.35243936
H 2.83573602 0.58345842 1.84259586
H 8.98847733 -0.41290723 -1.79594143
H 8.50185498 -0.56359330 0.63076432
H 5.02739854 0.43912317 -3.67967804
H -4.47567241 -2.22201685 4.47522687
H 6.94011654 -0.50377262 2.47618245
*
$new_job
# 
!wB97X-D3 def2-TZVP def2/J RIJCOSX Grid5 FinalGrid6 TightSCF
%pal 
 nprocs 24
end
%elprop
   dipole     true
   quadrupole true
end
%tddft
  Mode sTDDFT
  nroots 2
  Ethresh 10.0
  maxcore 5000
end
* xyz 0 1 
C -6.49213321 -0.83023792 -1.80095713
C -5.33404434 -0.54511303 -1.08079092
C -5.26573990 -0.90557424 0.27760716
C -6.37122191 -1.59371837 0.85334236
C -7.54226717 -1.87380267 0.13292535
C -7.58852905 -1.47373674 -1.20068940
C -4.24893432 -0.81679311 1.31285934
C -4.77820318 -1.49858037 2.44578080
N -6.06198616 -1.92934547 2.15974885
C -4.04679069 -1.69592514 3.62713109
C -2.74116720 -1.20798840 3.65799403
C -2.20154996 -0.51394639 2.56738922
C -2.93808229 -0.27474665 1.39064053
H -1.19163362 -0.11975757 2.63709881
H -6.65560023 -2.45745183 2.78745387
H -2.13470226 -1.35310278 4.54786378
H -4.49338314 -0.07300157 -1.57938501
H -8.37668943 -2.39420530 0.59552569
H -8.47842089 -1.67570023 -1.79086227
H -6.54975474 -0.55413510 -2.85028843
O 1.68640398 0.90752865 -0.24960239
C 0.79511612 1.65221690 -0.93821190
C 1.47551596 2.48245618 -1.81906701
C 2.85242892 2.19931082 -1.64466040
C 2.93584820 1.20599338 -0.67828667
C -0.61135931 1.47843513 -0.66428177
C -1.74279607 2.08620866 -1.19158288
C -2.85109239 1.49666777 -0.53251805
C -2.33334747 0.56268661 0.35361017
O -0.98337697 0.57781283 0.27117473
H -3.88944806 1.76496606 -0.65733972
H -1.76854614 2.85587990 -1.94934799
H 3.67570141 2.67514057 -2.15582897
H 1.03736711 3.20070744 -2.49711977
C 4.04840291 0.61322650 0.07578509
C 5.35123350 0.32667316 -0.47171557
C 6.40494077 -0.05381440 0.42490325
C 6.13097682 -0.21308466 1.81060907
C 4.85376488 -0.03140714 2.29670549
C 3.82407945 0.38814855 1.43537024
C 7.71728190 -0.29864270 -0.07263267
C 7.98676153 -0.22197999 -1.42164558
C 6.95047743 0.07021508 -2.33353147
C 5.66263378 0.32307017 -1.87110600
O 4.67494096 0.51967825 -2.78367133
H 7.14799804 0.07715153 -3.40268502
H 4.64111545 -0.17907395 3.35243936
H 2.83573602 0.58345842 1.84259586
H 8.98847733 -0.41290723 -1.79594143
H 8.50185498 -0.56359330 0.63076432
H 5.02739854 0.43912317 -3.67967804
H -4.47567241 -2.22201685 4.47522687
H 6.94011654 -0.50377262 2.47618245
*
