# 
!wB97X-D3 def2-TZVP def2/J RIJCOSX Grid5 FinalGrid6 TightSCF
%pal 
 nprocs 24
end
%tddft
  Mode sTDDFT
  nroots 2
  Ethresh 10.0
  maxcore 5000
  triplets true
end
* xyz 0 1 
C -6.37837549 0.22061513 -3.89637305
C -5.55456743 0.63232328 -2.85192500
C -6.00035310 1.65104655 -1.98837394
C -7.28772549 2.21431152 -2.21438442
C -8.11695374 1.80618185 -3.27033605
C -7.64137232 0.80095807 -4.10848488
C -5.46031916 2.31116046 -0.80973584
C -6.46511855 3.22712667 -0.37747604
N -7.54213399 3.16531249 -1.24175535
C -6.33478966 4.02426527 0.76920375
C -5.16592337 3.88630617 1.51486296
C -4.16197633 2.99441538 1.11797856
C -4.26586778 2.20628213 -0.04456398
H -3.25681927 2.92569239 1.71710157
H -8.39458186 3.70477224 -1.15428164
H -5.02621934 4.47875392 2.41448635
H -4.58056585 0.17248419 -2.71274029
H -9.09470605 2.25517370 -3.42331216
H -8.25545754 0.45825579 -4.93711871
H -6.03835729 -0.56448525 -4.56621785
S 0.90199772 -1.60338454 -1.71576774
C 0.05221684 -0.83541977 -0.36164669
N 0.61981768 -1.06562172 0.81466813
N 1.74153717 -1.84304884 0.73733451
C 2.04273402 -2.22119404 -0.50102242
C -1.14012378 -0.03967876 -0.54017482
N -1.70221249 0.19254690 -1.71916458
N -2.82316703 0.97241573 -1.63954356
C -3.13808399 1.34194084 -0.40757565
S -1.99056768 0.72562636 0.80891050
C 5.09756797 -4.37673697 -0.84404260
C 4.86130605 -4.35527943 -2.19490847
S 3.44506321 -3.41600630 -2.57676792
C 3.17106581 -3.04408875 -0.87599291
C 4.14302512 -3.63814970 -0.07659072
C 4.23366369 -3.51836532 1.42195524
C 5.24099297 -2.44296877 1.86939538
C 4.84553824 -1.03540537 1.41607550
C 5.84373534 0.04358457 1.84682486
C 5.86713050 0.28386275 3.35985156
C 6.82632470 1.39844211 3.75325227
H 5.93073021 -4.90646292 -0.39458342
H 7.84355003 1.16239577 3.44757173
H 6.54733113 2.33745327 3.27975481
H 6.82531799 1.55100950 4.83024369
H 3.24948909 -3.28748154 1.83855668
H 4.54617877 -4.48338988 1.83746826
H 6.23383355 -2.68913628 1.47733752
H 5.32022398 -2.47457654 2.96064998
H 4.76070150 -1.02598724 0.32434191
H 3.85033273 -0.79613791 1.80286210
H 6.15106006 -0.63844615 3.87620926
H 4.85729445 0.53024795 3.70291499
H 6.84869417 -0.22712411 1.50566473
H 5.59062823 0.98201944 1.34258278
H -7.11966766 4.71318531 1.06836533
H 5.44682335 -4.84169156 -2.96446424
*
$new_job
# 
!wB97X-D3 def2-TZVP def2/J RIJCOSX Grid5 FinalGrid6 TightSCF
%pal 
 nprocs 24
end
%elprop
   dipole     true
   quadrupole true
end
%tddft
  Mode sTDDFT
  nroots 2
  Ethresh 10.0
  maxcore 5000
end
* xyz 0 1 
C -6.37837549 0.22061513 -3.89637305
C -5.55456743 0.63232328 -2.85192500
C -6.00035310 1.65104655 -1.98837394
C -7.28772549 2.21431152 -2.21438442
C -8.11695374 1.80618185 -3.27033605
C -7.64137232 0.80095807 -4.10848488
C -5.46031916 2.31116046 -0.80973584
C -6.46511855 3.22712667 -0.37747604
N -7.54213399 3.16531249 -1.24175535
C -6.33478966 4.02426527 0.76920375
C -5.16592337 3.88630617 1.51486296
C -4.16197633 2.99441538 1.11797856
C -4.26586778 2.20628213 -0.04456398
H -3.25681927 2.92569239 1.71710157
H -8.39458186 3.70477224 -1.15428164
H -5.02621934 4.47875392 2.41448635
H -4.58056585 0.17248419 -2.71274029
H -9.09470605 2.25517370 -3.42331216
H -8.25545754 0.45825579 -4.93711871
H -6.03835729 -0.56448525 -4.56621785
S 0.90199772 -1.60338454 -1.71576774
C 0.05221684 -0.83541977 -0.36164669
N 0.61981768 -1.06562172 0.81466813
N 1.74153717 -1.84304884 0.73733451
C 2.04273402 -2.22119404 -0.50102242
C -1.14012378 -0.03967876 -0.54017482
N -1.70221249 0.19254690 -1.71916458
N -2.82316703 0.97241573 -1.63954356
C -3.13808399 1.34194084 -0.40757565
S -1.99056768 0.72562636 0.80891050
C 5.09756797 -4.37673697 -0.84404260
C 4.86130605 -4.35527943 -2.19490847
S 3.44506321 -3.41600630 -2.57676792
C 3.17106581 -3.04408875 -0.87599291
C 4.14302512 -3.63814970 -0.07659072
C 4.23366369 -3.51836532 1.42195524
C 5.24099297 -2.44296877 1.86939538
C 4.84553824 -1.03540537 1.41607550
C 5.84373534 0.04358457 1.84682486
C 5.86713050 0.28386275 3.35985156
C 6.82632470 1.39844211 3.75325227
H 5.93073021 -4.90646292 -0.39458342
H 7.84355003 1.16239577 3.44757173
H 6.54733113 2.33745327 3.27975481
H 6.82531799 1.55100950 4.83024369
H 3.24948909 -3.28748154 1.83855668
H 4.54617877 -4.48338988 1.83746826
H 6.23383355 -2.68913628 1.47733752
H 5.32022398 -2.47457654 2.96064998
H 4.76070150 -1.02598724 0.32434191
H 3.85033273 -0.79613791 1.80286210
H 6.15106006 -0.63844615 3.87620926
H 4.85729445 0.53024795 3.70291499
H 6.84869417 -0.22712411 1.50566473
H 5.59062823 0.98201944 1.34258278
H -7.11966766 4.71318531 1.06836533
H 5.44682335 -4.84169156 -2.96446424
*
