# 
!wB97X-D3 def2-TZVP def2/J RIJCOSX Grid5 FinalGrid6 TightSCF
%pal 
 nprocs 24
end
%tddft
  Mode sTDDFT
  nroots 2
  Ethresh 10.0
  maxcore 5000
  triplets true
end
* xyz 0 1 
C -5.30570858 1.62369560 -2.14791431
C -4.38604380 1.00016303 -1.30881717
C -4.83210448 -0.00368260 -0.42766078
C -6.21069820 -0.35726129 -0.44843113
C -7.14051584 0.27371694 -1.28900432
C -6.66701248 1.27221539 -2.13581721
C -4.19704093 -0.87563612 0.54870813
C -5.22760249 -1.72810889 1.04500979
N -6.42717654 -1.38772065 0.44956016
C -4.99312909 -2.75066470 1.97636316
C -3.68300859 -2.93231838 2.41305289
C -2.64986192 -2.10695808 1.95011305
C -2.87531958 -1.06062248 1.03607284
H -1.64299687 -2.26062568 2.32887123
H -7.31494216 -1.84503000 0.61761911
H -3.45630168 -3.71776162 3.12810585
H -3.34119868 1.29022295 -1.34789192
H -8.18877351 -0.01239490 -1.28224158
H -7.35714087 1.78286686 -2.80194008
H -4.96559499 2.39943769 -2.82817385
C 3.83889910 1.12376216 -0.12043849
N 3.34670255 2.33209909 -0.44113563
O 1.99093953 2.25789334 -0.32443735
C 1.63247653 1.03069537 0.06304315
C 2.76138640 0.24446595 0.21038255
C 0.21803252 0.73873647 0.25189356
N -0.73299965 1.66350545 0.05339734
O -1.92024986 1.05742147 0.31409827
C -1.72996022 -0.22258367 0.66581481
C -0.37276222 -0.49236739 0.65643234
H 0.12169401 -1.42609540 0.88100317
H 2.80045906 -0.77368439 0.57094228
C 8.06146808 0.31494497 0.19263709
C 7.19300393 -0.70332863 -0.24455291
C 5.82457139 -0.42409908 -0.37930133
C 5.29140296 0.85851826 -0.07883376
C 6.21065944 1.87218392 0.32822416
C 7.57999752 1.60131876 0.47391026
O 5.78381551 3.11841292 0.60970793
O 5.02383830 -1.41233896 -0.84617248
O 9.38418912 0.06175930 0.33353575
H 9.57711888 -0.85574510 0.10161386
H 4.13158694 -1.07797552 -1.01044085
H 4.82664640 3.19950313 0.44284134
H 8.25558610 2.38351741 0.79753897
H -5.80161615 -3.38159597 2.33448345
H 7.56588511 -1.69225692 -0.48887135
*
$new_job
# 
!wB97X-D3 def2-TZVP def2/J RIJCOSX Grid5 FinalGrid6 TightSCF
%pal 
 nprocs 24
end
%elprop
   dipole     true
   quadrupole true
end
%tddft
  Mode sTDDFT
  nroots 2
  Ethresh 10.0
  maxcore 5000
end
* xyz 0 1 
C -5.30570858 1.62369560 -2.14791431
C -4.38604380 1.00016303 -1.30881717
C -4.83210448 -0.00368260 -0.42766078
C -6.21069820 -0.35726129 -0.44843113
C -7.14051584 0.27371694 -1.28900432
C -6.66701248 1.27221539 -2.13581721
C -4.19704093 -0.87563612 0.54870813
C -5.22760249 -1.72810889 1.04500979
N -6.42717654 -1.38772065 0.44956016
C -4.99312909 -2.75066470 1.97636316
C -3.68300859 -2.93231838 2.41305289
C -2.64986192 -2.10695808 1.95011305
C -2.87531958 -1.06062248 1.03607284
H -1.64299687 -2.26062568 2.32887123
H -7.31494216 -1.84503000 0.61761911
H -3.45630168 -3.71776162 3.12810585
H -3.34119868 1.29022295 -1.34789192
H -8.18877351 -0.01239490 -1.28224158
H -7.35714087 1.78286686 -2.80194008
H -4.96559499 2.39943769 -2.82817385
C 3.83889910 1.12376216 -0.12043849
N 3.34670255 2.33209909 -0.44113563
O 1.99093953 2.25789334 -0.32443735
C 1.63247653 1.03069537 0.06304315
C 2.76138640 0.24446595 0.21038255
C 0.21803252 0.73873647 0.25189356
N -0.73299965 1.66350545 0.05339734
O -1.92024986 1.05742147 0.31409827
C -1.72996022 -0.22258367 0.66581481
C -0.37276222 -0.49236739 0.65643234
H 0.12169401 -1.42609540 0.88100317
H 2.80045906 -0.77368439 0.57094228
C 8.06146808 0.31494497 0.19263709
C 7.19300393 -0.70332863 -0.24455291
C 5.82457139 -0.42409908 -0.37930133
C 5.29140296 0.85851826 -0.07883376
C 6.21065944 1.87218392 0.32822416
C 7.57999752 1.60131876 0.47391026
O 5.78381551 3.11841292 0.60970793
O 5.02383830 -1.41233896 -0.84617248
O 9.38418912 0.06175930 0.33353575
H 9.57711888 -0.85574510 0.10161386
H 4.13158694 -1.07797552 -1.01044085
H 4.82664640 3.19950313 0.44284134
H 8.25558610 2.38351741 0.79753897
H -5.80161615 -3.38159597 2.33448345
H 7.56588511 -1.69225692 -0.48887135
*
