# 
!wB97X-D3 def2-TZVP def2/J RIJCOSX Grid5 FinalGrid6 TightSCF
%pal 
 nprocs 24
end
%tddft
  Mode sTDDFT
  nroots 2
  Ethresh 10.0
  maxcore 5000
  triplets true
end
* xyz 0 1 
C -3.94274693 -3.21151795 0.48755773
C -3.82717757 -1.83100934 0.34203264
C -4.88385835 -1.00705964 0.77178862
C -6.05143048 -1.62088339 1.30634612
C -6.16655118 -3.01073760 1.46194814
C -5.09150172 -3.79518014 1.05035686
C -5.14111090 0.42371274 0.75292410
C -6.46798576 0.59432344 1.24131854
N -6.98543633 -0.64004036 1.59292397
C -7.10102478 1.84556586 1.30077581
C -6.38257180 2.94671202 0.83799750
C -5.07032211 2.80949031 0.36462124
C -4.41038216 1.56713867 0.33571112
H -4.53169817 3.69557763 0.03769940
H -7.91809297 -0.80313484 1.95191970
H -6.84082338 3.93180197 0.85355800
H -2.93652163 -1.40930455 -0.11441547
H -7.06512707 -3.45802823 1.87854990
H -5.14551345 -4.87560796 1.15408103
H -3.13013656 -3.85299606 0.15809286
N 1.68729240 1.67753745 -1.48696236
C 0.45277990 2.24093410 -1.78356205
C 0.46706211 3.16020812 -2.82092083
S 2.08075575 3.33784387 -3.46023199
C 2.64663190 2.13986271 -2.26799473
C -0.72501762 1.84774843 -1.02207699
S -2.34109381 2.51989088 -1.35396094
C -3.00052847 1.50755315 -0.06878488
C -1.97125983 0.78339432 0.50508892
N -0.71827904 0.97366666 -0.02859247
H -0.37673090 3.71395615 -3.21325961
H -2.09517351 0.11830687 1.35681714
S 10.70589568 -2.38897126 0.61676996
C 9.08644590 -1.71909420 0.30712305
C 8.05570817 -2.15310709 1.07563489
S 8.39950334 -3.36045890 2.33678914
C 10.20992269 -3.50345847 2.00304825
S 6.44335766 -1.48066537 0.76113438
C 6.98440102 -0.41899402 -0.57823704
S 8.73651596 -0.51428472 -0.94951372
C 6.13293520 0.39227309 -1.25647799
S 6.66355736 1.45520573 -2.59455102
C 5.07039522 2.13359330 -2.92180741
C 4.02567871 1.70918727 -2.16023329
S 4.38522107 0.49836388 -0.89859049
H 10.45832699 -4.54094035 1.75001352
H 10.77402811 -3.24303116 2.90640967
H -8.11484716 1.94816070 1.67705564
H 4.96612849 2.86649627 -3.71641458
*
$new_job
# 
!wB97X-D3 def2-TZVP def2/J RIJCOSX Grid5 FinalGrid6 TightSCF
%pal 
 nprocs 24
end
%elprop
   dipole     true
   quadrupole true
end
%tddft
  Mode sTDDFT
  nroots 2
  Ethresh 10.0
  maxcore 5000
end
* xyz 0 1 
C -3.94274693 -3.21151795 0.48755773
C -3.82717757 -1.83100934 0.34203264
C -4.88385835 -1.00705964 0.77178862
C -6.05143048 -1.62088339 1.30634612
C -6.16655118 -3.01073760 1.46194814
C -5.09150172 -3.79518014 1.05035686
C -5.14111090 0.42371274 0.75292410
C -6.46798576 0.59432344 1.24131854
N -6.98543633 -0.64004036 1.59292397
C -7.10102478 1.84556586 1.30077581
C -6.38257180 2.94671202 0.83799750
C -5.07032211 2.80949031 0.36462124
C -4.41038216 1.56713867 0.33571112
H -4.53169817 3.69557763 0.03769940
H -7.91809297 -0.80313484 1.95191970
H -6.84082338 3.93180197 0.85355800
H -2.93652163 -1.40930455 -0.11441547
H -7.06512707 -3.45802823 1.87854990
H -5.14551345 -4.87560796 1.15408103
H -3.13013656 -3.85299606 0.15809286
N 1.68729240 1.67753745 -1.48696236
C 0.45277990 2.24093410 -1.78356205
C 0.46706211 3.16020812 -2.82092083
S 2.08075575 3.33784387 -3.46023199
C 2.64663190 2.13986271 -2.26799473
C -0.72501762 1.84774843 -1.02207699
S -2.34109381 2.51989088 -1.35396094
C -3.00052847 1.50755315 -0.06878488
C -1.97125983 0.78339432 0.50508892
N -0.71827904 0.97366666 -0.02859247
H -0.37673090 3.71395615 -3.21325961
H -2.09517351 0.11830687 1.35681714
S 10.70589568 -2.38897126 0.61676996
C 9.08644590 -1.71909420 0.30712305
C 8.05570817 -2.15310709 1.07563489
S 8.39950334 -3.36045890 2.33678914
C 10.20992269 -3.50345847 2.00304825
S 6.44335766 -1.48066537 0.76113438
C 6.98440102 -0.41899402 -0.57823704
S 8.73651596 -0.51428472 -0.94951372
C 6.13293520 0.39227309 -1.25647799
S 6.66355736 1.45520573 -2.59455102
C 5.07039522 2.13359330 -2.92180741
C 4.02567871 1.70918727 -2.16023329
S 4.38522107 0.49836388 -0.89859049
H 10.45832699 -4.54094035 1.75001352
H 10.77402811 -3.24303116 2.90640967
H -8.11484716 1.94816070 1.67705564
H 4.96612849 2.86649627 -3.71641458
*
