# 
!wB97X-D3 def2-TZVP def2/J RIJCOSX Grid5 FinalGrid6 TightSCF
%pal 
 nprocs 24
end
%tddft
  Mode sTDDFT
  nroots 2
  Ethresh 10.0
  maxcore 5000
  triplets true
end
* xyz 0 1 
C 9.27162745 -0.90085722 -3.35062196
C 8.45502074 -0.67462297 -2.24547248
C 9.03130339 -0.19130381 -1.05537427
C 10.43253850 0.05689347 -1.03446036
C 11.25880631 -0.17681265 -2.14426219
C 10.65605334 -0.66070379 -3.30277013
C 8.52445926 0.18196900 0.25658116
C 9.65142754 0.65391627 0.99308608
N 10.78495412 0.55439710 0.20807617
C 9.55986915 1.15320483 2.30069345
C 8.29403990 1.19473909 2.88167318
C 7.16817273 0.74054278 2.18387283
C 7.24648179 0.21246851 0.88049062
H 6.19891334 0.77508073 2.67620350
H 11.71696632 0.83460131 0.48749542
H 8.17538232 1.58080662 3.89017395
H 7.38915192 -0.87421098 -2.30553462
H 12.32717443 0.01771763 -2.10086046
H 11.26367052 -0.85371977 -4.18302758
H 8.83175067 -1.27496966 -4.27104809
S 1.13141870 -0.01119789 0.18284351
C -0.09722916 -0.86408005 -0.77667090
N 0.43201347 -1.75304809 -1.61426228
N 1.79372850 -1.81747766 -1.57097108
C 2.33204184 -0.97766050 -0.69492816
C 3.75385449 -0.84441868 -0.45812041
N 4.69224181 -1.55252080 -1.07105534
N 5.96084070 -1.23781195 -0.66600991
C 6.01960142 -0.28719051 0.25187969
S 4.40377009 0.31072615 0.72139732
C -4.08080303 1.67239453 0.95369649
C -5.45227631 1.91856834 0.87461662
C -6.28238059 1.16092217 0.03099196
C -5.74682232 0.15439199 -0.77113033
C -4.33918234 -0.11404612 -0.73836988
C -3.49186801 0.63721785 0.14309245
C -3.75792865 -1.11252935 -1.59468192
C -2.38759028 -1.32207112 -1.58997064
C -1.53020960 -0.59913265 -0.71432030
C -2.08912892 0.32725485 0.18560470
N -1.21181507 1.00237603 1.06608059
C -1.15664251 0.75854008 2.33555791
C -0.16894479 1.51109103 3.18810332
N -4.59988939 -1.95929439 -2.35120974
C -4.50348945 -2.09779618 -3.63294114
C -3.56820161 -1.30039889 -4.51931509
N -6.56146010 -0.49181880 -1.72636878
C -7.60747394 -1.18663278 -1.42320002
C -8.44677893 -1.77164931 -2.53168335
N -3.26467097 2.56963386 1.67777339
C -3.49124906 2.92624152 2.89987715
C -2.63590809 4.00501978 3.51835061
C -4.54755126 2.31865887 3.80668281
C -2.01129588 -0.27372225 3.03896670
C -5.40170313 -3.08873377 -4.33059298
C -8.04874131 -1.50526353 -0.00757932
H -5.87830608 2.73913234 1.44466861
H -1.95212611 -2.07508939 -2.23953495
H -2.51348425 -0.92147283 2.32537694
H -2.77067256 0.21929078 3.64671727
H -1.40564032 -0.88257609 3.70808970
H 0.63601188 0.84711334 3.50648407
H -0.64514136 1.89275385 4.09037872
H 0.26890105 2.34078528 2.64136268
H -5.38452756 3.00537907 3.93530349
H -4.13310138 2.13042320 4.79630418
H -4.93358387 1.38691873 3.40153654
H -2.17096869 3.65432723 4.44004681
H -1.85712707 4.32701510 2.83373429
H -3.24537351 4.87046560 3.78072711
H -8.42551284 -2.86125407 -2.49214352
H -9.48908540 -1.46930596 -2.43037659
H -8.08389023 -1.45621337 -3.50558608
H -8.32519225 -2.55487092 0.07848353
H -8.92724299 -0.91729224 0.26027463
H -7.26209716 -1.28668116 0.70965694
H -6.07017205 -2.57650918 -5.02351770
H -4.81571870 -3.79593825 -4.91739987
H -6.00495579 -3.64221141 -3.61665662
H -3.19987874 -0.41422213 -4.00952314
H -4.07479593 -0.99923568 -5.43476405
H -2.70896195 -1.90573433 -4.80950178
H 10.43976983 1.50312563 2.83317450
H -7.34276603 1.38849861 -0.02876360
*
$new_job
# 
!wB97X-D3 def2-TZVP def2/J RIJCOSX Grid5 FinalGrid6 TightSCF
%pal 
 nprocs 24
end
%elprop
   dipole     true
   quadrupole true
end
%tddft
  Mode sTDDFT
  nroots 2
  Ethresh 10.0
  maxcore 5000
end
* xyz 0 1 
C 9.27162745 -0.90085722 -3.35062196
C 8.45502074 -0.67462297 -2.24547248
C 9.03130339 -0.19130381 -1.05537427
C 10.43253850 0.05689347 -1.03446036
C 11.25880631 -0.17681265 -2.14426219
C 10.65605334 -0.66070379 -3.30277013
C 8.52445926 0.18196900 0.25658116
C 9.65142754 0.65391627 0.99308608
N 10.78495412 0.55439710 0.20807617
C 9.55986915 1.15320483 2.30069345
C 8.29403990 1.19473909 2.88167318
C 7.16817273 0.74054278 2.18387283
C 7.24648179 0.21246851 0.88049062
H 6.19891334 0.77508073 2.67620350
H 11.71696632 0.83460131 0.48749542
H 8.17538232 1.58080662 3.89017395
H 7.38915192 -0.87421098 -2.30553462
H 12.32717443 0.01771763 -2.10086046
H 11.26367052 -0.85371977 -4.18302758
H 8.83175067 -1.27496966 -4.27104809
S 1.13141870 -0.01119789 0.18284351
C -0.09722916 -0.86408005 -0.77667090
N 0.43201347 -1.75304809 -1.61426228
N 1.79372850 -1.81747766 -1.57097108
C 2.33204184 -0.97766050 -0.69492816
C 3.75385449 -0.84441868 -0.45812041
N 4.69224181 -1.55252080 -1.07105534
N 5.96084070 -1.23781195 -0.66600991
C 6.01960142 -0.28719051 0.25187969
S 4.40377009 0.31072615 0.72139732
C -4.08080303 1.67239453 0.95369649
C -5.45227631 1.91856834 0.87461662
C -6.28238059 1.16092217 0.03099196
C -5.74682232 0.15439199 -0.77113033
C -4.33918234 -0.11404612 -0.73836988
C -3.49186801 0.63721785 0.14309245
C -3.75792865 -1.11252935 -1.59468192
C -2.38759028 -1.32207112 -1.58997064
C -1.53020960 -0.59913265 -0.71432030
C -2.08912892 0.32725485 0.18560470
N -1.21181507 1.00237603 1.06608059
C -1.15664251 0.75854008 2.33555791
C -0.16894479 1.51109103 3.18810332
N -4.59988939 -1.95929439 -2.35120974
C -4.50348945 -2.09779618 -3.63294114
C -3.56820161 -1.30039889 -4.51931509
N -6.56146010 -0.49181880 -1.72636878
C -7.60747394 -1.18663278 -1.42320002
C -8.44677893 -1.77164931 -2.53168335
N -3.26467097 2.56963386 1.67777339
C -3.49124906 2.92624152 2.89987715
C -2.63590809 4.00501978 3.51835061
C -4.54755126 2.31865887 3.80668281
C -2.01129588 -0.27372225 3.03896670
C -5.40170313 -3.08873377 -4.33059298
C -8.04874131 -1.50526353 -0.00757932
H -5.87830608 2.73913234 1.44466861
H -1.95212611 -2.07508939 -2.23953495
H -2.51348425 -0.92147283 2.32537694
H -2.77067256 0.21929078 3.64671727
H -1.40564032 -0.88257609 3.70808970
H 0.63601188 0.84711334 3.50648407
H -0.64514136 1.89275385 4.09037872
H 0.26890105 2.34078528 2.64136268
H -5.38452756 3.00537907 3.93530349
H -4.13310138 2.13042320 4.79630418
H -4.93358387 1.38691873 3.40153654
H -2.17096869 3.65432723 4.44004681
H -1.85712707 4.32701510 2.83373429
H -3.24537351 4.87046560 3.78072711
H -8.42551284 -2.86125407 -2.49214352
H -9.48908540 -1.46930596 -2.43037659
H -8.08389023 -1.45621337 -3.50558608
H -8.32519225 -2.55487092 0.07848353
H -8.92724299 -0.91729224 0.26027463
H -7.26209716 -1.28668116 0.70965694
H -6.07017205 -2.57650918 -5.02351770
H -4.81571870 -3.79593825 -4.91739987
H -6.00495579 -3.64221141 -3.61665662
H -3.19987874 -0.41422213 -4.00952314
H -4.07479593 -0.99923568 -5.43476405
H -2.70896195 -1.90573433 -4.80950178
H 10.43976983 1.50312563 2.83317450
H -7.34276603 1.38849861 -0.02876360
*
