# 
!wB97X-D3 def2-TZVP def2/J RIJCOSX Grid5 FinalGrid6 TightSCF
%pal 
 nprocs 24
end
%tddft
  Mode sTDDFT
  nroots 2
  Ethresh 10.0
  maxcore 5000
  triplets true
end
* xyz 0 1 
C -6.68345776 -0.51598913 -2.87286568
C -5.45587769 -0.42244094 -2.26463371
C -5.36278856 -0.13431164 -0.86481073
C -6.57623806 0.06525722 -0.11027168
C -7.83583848 -0.04220362 -0.78470253
C -7.88134727 -0.32623424 -2.12719106
N -4.14410745 -0.05273234 -0.27505544
C -4.10265680 0.21596769 1.05069744
C -5.32125666 0.44776812 1.79760761
N -6.54095405 0.36522030 1.21080630
C -5.23848846 0.77890787 3.18793756
C -4.01239180 0.88038582 3.79855567
C -2.81540488 0.64610720 3.07492700
C -2.82587329 0.30630245 1.73100506
H -1.86765205 0.71386799 3.60288202
H -3.94669362 1.13329291 4.85374499
H -6.15551935 0.94794685 3.74582476
H -8.83839298 -0.40754467 -2.63637606
H -4.54162216 -0.56917966 -2.83453996
H -6.75175119 -0.73748950 -3.93493905
S 2.65991885 1.82967070 1.99716150
C 2.14651191 0.68146370 0.76306004
C 3.21963103 0.29638003 -0.01555555
C 4.45906696 0.91449800 0.35828499
C 4.30663685 1.77849040 1.42875233
C 0.76843875 0.25565447 0.64894050
C -0.30885967 0.64599451 1.41826265
C -1.55336306 0.04395073 1.02950079
C -1.39810477 -0.81949257 -0.04065301
S 0.25784627 -0.89990054 -0.57923101
H -0.21755637 1.36769535 2.22413254
H 3.12185533 -0.39635818 -0.84424567
H -2.16927657 -1.41927917 -0.50556331
H 5.08726580 2.34818672 1.91699046
C 8.22996107 0.46179173 -1.58469721
N 7.91651358 1.60526418 -0.97995459
C 6.70275818 1.71084172 -0.36976701
C 5.75082401 0.69207409 -0.32357456
C 6.08185923 -0.55110742 -0.95784850
C 7.34913451 -0.65884009 -1.60828361
N 5.22434180 -1.62482464 -0.92034818
C 5.61957503 -2.73166152 -1.53651690
C 6.87172237 -2.82686598 -2.20805399
N 7.73258468 -1.81774435 -2.24289095
H 6.48134075 2.67658715 0.09653411
H 4.94353973 -3.59536023 -1.50890333
H 7.15838696 -3.75842862 -2.71066209
H -8.75161226 0.10412427 -0.21743572
H 9.20727162 0.39419689 -2.07603723
*
$new_job
# 
!wB97X-D3 def2-TZVP def2/J RIJCOSX Grid5 FinalGrid6 TightSCF
%pal 
 nprocs 24
end
%elprop
   dipole     true
   quadrupole true
end
%tddft
  Mode sTDDFT
  nroots 2
  Ethresh 10.0
  maxcore 5000
end
* xyz 0 1 
C -6.68345776 -0.51598913 -2.87286568
C -5.45587769 -0.42244094 -2.26463371
C -5.36278856 -0.13431164 -0.86481073
C -6.57623806 0.06525722 -0.11027168
C -7.83583848 -0.04220362 -0.78470253
C -7.88134727 -0.32623424 -2.12719106
N -4.14410745 -0.05273234 -0.27505544
C -4.10265680 0.21596769 1.05069744
C -5.32125666 0.44776812 1.79760761
N -6.54095405 0.36522030 1.21080630
C -5.23848846 0.77890787 3.18793756
C -4.01239180 0.88038582 3.79855567
C -2.81540488 0.64610720 3.07492700
C -2.82587329 0.30630245 1.73100506
H -1.86765205 0.71386799 3.60288202
H -3.94669362 1.13329291 4.85374499
H -6.15551935 0.94794685 3.74582476
H -8.83839298 -0.40754467 -2.63637606
H -4.54162216 -0.56917966 -2.83453996
H -6.75175119 -0.73748950 -3.93493905
S 2.65991885 1.82967070 1.99716150
C 2.14651191 0.68146370 0.76306004
C 3.21963103 0.29638003 -0.01555555
C 4.45906696 0.91449800 0.35828499
C 4.30663685 1.77849040 1.42875233
C 0.76843875 0.25565447 0.64894050
C -0.30885967 0.64599451 1.41826265
C -1.55336306 0.04395073 1.02950079
C -1.39810477 -0.81949257 -0.04065301
S 0.25784627 -0.89990054 -0.57923101
H -0.21755637 1.36769535 2.22413254
H 3.12185533 -0.39635818 -0.84424567
H -2.16927657 -1.41927917 -0.50556331
H 5.08726580 2.34818672 1.91699046
C 8.22996107 0.46179173 -1.58469721
N 7.91651358 1.60526418 -0.97995459
C 6.70275818 1.71084172 -0.36976701
C 5.75082401 0.69207409 -0.32357456
C 6.08185923 -0.55110742 -0.95784850
C 7.34913451 -0.65884009 -1.60828361
N 5.22434180 -1.62482464 -0.92034818
C 5.61957503 -2.73166152 -1.53651690
C 6.87172237 -2.82686598 -2.20805399
N 7.73258468 -1.81774435 -2.24289095
H 6.48134075 2.67658715 0.09653411
H 4.94353973 -3.59536023 -1.50890333
H 7.15838696 -3.75842862 -2.71066209
H -8.75161226 0.10412427 -0.21743572
H 9.20727162 0.39419689 -2.07603723
*
