# 
!wB97X-D3 def2-TZVP def2/J RIJCOSX Grid5 FinalGrid6 TightSCF
%pal 
 nprocs 24
end
%tddft
  Mode sTDDFT
  nroots 2
  Ethresh 10.0
  maxcore 5000
  triplets true
end
* xyz 0 1 
C -4.36007689 -0.06200578 -2.66368016
C -3.82733826 -0.16853329 -1.38147686
C -4.65172097 0.09506800 -0.27158292
C -6.01921441 0.41490569 -0.50445451
C -6.55761465 0.52798325 -1.79553816
C -5.70479976 0.29282477 -2.87093336
C -4.47602899 0.05792641 1.17134888
C -5.76122080 0.31363187 1.73222929
N -6.66424263 0.55229257 0.71201113
C -6.00834288 0.28915718 3.11310980
C -4.93783510 -0.01793226 3.95027611
C -3.65836144 -0.25415454 3.42892220
C -3.39100729 -0.19867903 2.04884608
H -2.83628730 -0.46165450 4.10785855
H -7.65073255 0.74427874 0.83626986
H -5.09025133 -0.06056166 5.02505868
H -2.79142851 -0.46964375 -1.25452485
H -7.60368592 0.77937366 -1.94845403
H -6.08675897 0.36972832 -3.88531559
H -3.72650634 -0.26235734 -3.52312232
S 3.06480914 -0.74787016 0.65069096
C 1.57504851 0.13102455 0.22772623
N 1.76234646 1.05601288 -0.69844982
N 3.05402082 1.14276813 -1.13433971
C 3.88717100 0.28864402 -0.55201844
C 0.30613704 -0.16071411 0.85336652
N 0.13895133 -1.09534471 1.77889348
N -1.15138148 -1.18807665 2.22629902
C -1.98750149 -0.35049817 1.63110074
S -1.18429558 0.69975293 0.44272645
C 5.30662847 0.22804428 -0.90454328
C 6.28406206 -0.57881581 -0.25917764
C 7.61623210 -0.55263987 -0.69426481
C 8.02120887 0.26003740 -1.76409843
C 7.07002318 1.06672753 -2.41098842
C 5.74759953 1.04141305 -1.98035998
O 9.32252912 0.24508547 -2.14293017
O 8.56007346 -1.34055268 -0.05958301
O 6.03218175 -1.41211083 0.80378777
H 5.01121245 1.66216073 -2.48052533
H 9.79278583 -0.37541049 -1.56408731
H 8.09794192 -1.82276683 0.64540674
H 5.10571085 -1.37147322 1.08571740
H -6.99914103 0.48902274 3.51130578
H 7.36920067 1.69993150 -3.23860257
*
$new_job
# 
!wB97X-D3 def2-TZVP def2/J RIJCOSX Grid5 FinalGrid6 TightSCF
%pal 
 nprocs 24
end
%elprop
   dipole     true
   quadrupole true
end
%tddft
  Mode sTDDFT
  nroots 2
  Ethresh 10.0
  maxcore 5000
end
* xyz 0 1 
C -4.36007689 -0.06200578 -2.66368016
C -3.82733826 -0.16853329 -1.38147686
C -4.65172097 0.09506800 -0.27158292
C -6.01921441 0.41490569 -0.50445451
C -6.55761465 0.52798325 -1.79553816
C -5.70479976 0.29282477 -2.87093336
C -4.47602899 0.05792641 1.17134888
C -5.76122080 0.31363187 1.73222929
N -6.66424263 0.55229257 0.71201113
C -6.00834288 0.28915718 3.11310980
C -4.93783510 -0.01793226 3.95027611
C -3.65836144 -0.25415454 3.42892220
C -3.39100729 -0.19867903 2.04884608
H -2.83628730 -0.46165450 4.10785855
H -7.65073255 0.74427874 0.83626986
H -5.09025133 -0.06056166 5.02505868
H -2.79142851 -0.46964375 -1.25452485
H -7.60368592 0.77937366 -1.94845403
H -6.08675897 0.36972832 -3.88531559
H -3.72650634 -0.26235734 -3.52312232
S 3.06480914 -0.74787016 0.65069096
C 1.57504851 0.13102455 0.22772623
N 1.76234646 1.05601288 -0.69844982
N 3.05402082 1.14276813 -1.13433971
C 3.88717100 0.28864402 -0.55201844
C 0.30613704 -0.16071411 0.85336652
N 0.13895133 -1.09534471 1.77889348
N -1.15138148 -1.18807665 2.22629902
C -1.98750149 -0.35049817 1.63110074
S -1.18429558 0.69975293 0.44272645
C 5.30662847 0.22804428 -0.90454328
C 6.28406206 -0.57881581 -0.25917764
C 7.61623210 -0.55263987 -0.69426481
C 8.02120887 0.26003740 -1.76409843
C 7.07002318 1.06672753 -2.41098842
C 5.74759953 1.04141305 -1.98035998
O 9.32252912 0.24508547 -2.14293017
O 8.56007346 -1.34055268 -0.05958301
O 6.03218175 -1.41211083 0.80378777
H 5.01121245 1.66216073 -2.48052533
H 9.79278583 -0.37541049 -1.56408731
H 8.09794192 -1.82276683 0.64540674
H 5.10571085 -1.37147322 1.08571740
H -6.99914103 0.48902274 3.51130578
H 7.36920067 1.69993150 -3.23860257
*
