# 
!wB97X-D3 def2-TZVP def2/J RIJCOSX Grid5 FinalGrid6 TightSCF
%pal 
 nprocs 24
end
%tddft
  Mode sTDDFT
  nroots 2
  Ethresh 10.0
  maxcore 5000
  triplets true
end
* xyz 0 1 
C -6.92930161 0.39038073 1.48740039
C -8.05701412 0.66689004 2.26365214
C -9.34272238 0.63418851 1.70821543
C -9.53957903 0.28016859 0.37000720
C -8.40722003 -0.00190192 -0.39957272
C -7.08975472 0.09722634 0.12328584
N -8.35448008 -0.44123839 -1.71566061
C -7.03097113 -0.72961362 -2.08728201
C -6.15762107 -0.34067871 -0.91154971
C -4.77672617 -0.33170099 -0.92681785
C -3.91367107 -1.23127314 -1.78994806
N -2.58965245 -1.02880455 -1.37481480
C -2.51960939 -0.04244929 -0.40803424
C -3.83339519 0.40014861 -0.08773867
C -3.99090700 1.50305562 0.76460319
C -2.85712270 2.07151780 1.35137988
C -1.57812381 1.57556576 1.08597551
C -1.36293623 0.51580557 0.18089342
O -4.23534569 -2.08101063 -2.61234936
O -6.72420408 -1.10620584 -3.21217073
H -5.94769746 0.37645457 1.95016607
H -7.93591677 0.90354761 3.31676312
H -9.16062471 -0.64748574 -2.29510759
H -1.77152789 -1.47554286 -1.78696562
H -10.20232946 0.86109305 2.33312803
H -4.96947482 1.93385828 0.94943765
H -2.96933235 2.91790295 2.02255755
H -0.72725619 2.04253694 1.57378776
N 3.88132039 1.37237678 1.26238803
C 3.71992001 0.38604091 0.39596336
C 4.88540233 -0.28686494 -0.11670871
C 6.07588178 0.20391204 0.38223023
S 5.78105303 1.51964029 1.50673689
C 2.35554244 0.01692876 -0.00863576
C 1.19417528 0.60867817 0.42734249
C -0.00141086 0.03425596 -0.14454353
N 0.14287904 -0.96804805 -0.99883709
S 2.04723364 -1.27480016 -1.14200069
H 1.20174655 1.43084051 1.13510995
H 4.81255377 -1.10087943 -0.82826235
C 10.12136244 -1.06588119 -0.47462847
C 9.04598518 -1.71303632 -1.10222254
C 7.72780469 -1.30644810 -0.82915246
C 7.43791988 -0.24539786 0.07510614
C 8.55672109 0.37930522 0.68586355
C 9.88304956 -0.01087689 0.42753006
O 8.33468803 1.39233119 1.55251747
O 6.72257100 -1.95709759 -1.45556333
O 11.38119557 -1.46627212 -0.74589945
H 12.02179528 -0.94023765 -0.25023136
H 7.07658880 -2.64605204 -2.03334107
H 9.16204390 1.74305096 1.90696718
H 10.70834068 0.49741542 0.91923486
H -10.53738733 0.20979445 -0.05295798
H 9.23554144 -2.52511363 -1.79634664
*
$new_job
# 
!wB97X-D3 def2-TZVP def2/J RIJCOSX Grid5 FinalGrid6 TightSCF
%pal 
 nprocs 24
end
%elprop
   dipole     true
   quadrupole true
end
%tddft
  Mode sTDDFT
  nroots 2
  Ethresh 10.0
  maxcore 5000
end
* xyz 0 1 
C -6.92930161 0.39038073 1.48740039
C -8.05701412 0.66689004 2.26365214
C -9.34272238 0.63418851 1.70821543
C -9.53957903 0.28016859 0.37000720
C -8.40722003 -0.00190192 -0.39957272
C -7.08975472 0.09722634 0.12328584
N -8.35448008 -0.44123839 -1.71566061
C -7.03097113 -0.72961362 -2.08728201
C -6.15762107 -0.34067871 -0.91154971
C -4.77672617 -0.33170099 -0.92681785
C -3.91367107 -1.23127314 -1.78994806
N -2.58965245 -1.02880455 -1.37481480
C -2.51960939 -0.04244929 -0.40803424
C -3.83339519 0.40014861 -0.08773867
C -3.99090700 1.50305562 0.76460319
C -2.85712270 2.07151780 1.35137988
C -1.57812381 1.57556576 1.08597551
C -1.36293623 0.51580557 0.18089342
O -4.23534569 -2.08101063 -2.61234936
O -6.72420408 -1.10620584 -3.21217073
H -5.94769746 0.37645457 1.95016607
H -7.93591677 0.90354761 3.31676312
H -9.16062471 -0.64748574 -2.29510759
H -1.77152789 -1.47554286 -1.78696562
H -10.20232946 0.86109305 2.33312803
H -4.96947482 1.93385828 0.94943765
H -2.96933235 2.91790295 2.02255755
H -0.72725619 2.04253694 1.57378776
N 3.88132039 1.37237678 1.26238803
C 3.71992001 0.38604091 0.39596336
C 4.88540233 -0.28686494 -0.11670871
C 6.07588178 0.20391204 0.38223023
S 5.78105303 1.51964029 1.50673689
C 2.35554244 0.01692876 -0.00863576
C 1.19417528 0.60867817 0.42734249
C -0.00141086 0.03425596 -0.14454353
N 0.14287904 -0.96804805 -0.99883709
S 2.04723364 -1.27480016 -1.14200069
H 1.20174655 1.43084051 1.13510995
H 4.81255377 -1.10087943 -0.82826235
C 10.12136244 -1.06588119 -0.47462847
C 9.04598518 -1.71303632 -1.10222254
C 7.72780469 -1.30644810 -0.82915246
C 7.43791988 -0.24539786 0.07510614
C 8.55672109 0.37930522 0.68586355
C 9.88304956 -0.01087689 0.42753006
O 8.33468803 1.39233119 1.55251747
O 6.72257100 -1.95709759 -1.45556333
O 11.38119557 -1.46627212 -0.74589945
H 12.02179528 -0.94023765 -0.25023136
H 7.07658880 -2.64605204 -2.03334107
H 9.16204390 1.74305096 1.90696718
H 10.70834068 0.49741542 0.91923486
H -10.53738733 0.20979445 -0.05295798
H 9.23554144 -2.52511363 -1.79634664
*
