# 
!wB97X-D3 def2-TZVP def2/J RIJCOSX Grid5 FinalGrid6 TightSCF
%pal 
 nprocs 24
end
%tddft
  Mode sTDDFT
  nroots 2
  Ethresh 10.0
  maxcore 5000
  triplets true
end
* xyz 0 1 
C 7.82598602 0.21868174 -3.06185801
C 7.33458237 0.05200950 -1.76962067
C 8.24294407 -0.12651165 -0.70889214
C 9.63563313 -0.11886160 -1.00222754
C 10.13328672 0.04185261 -2.30442462
C 9.20619481 0.20952641 -3.32990404
C 8.12359195 -0.29872246 0.73082178
C 9.45823343 -0.36694806 1.23022625
N 10.34635818 -0.27474689 0.17492637
C 9.76206037 -0.48522481 2.59441630
C 8.69295704 -0.51997825 3.48722219
C 7.37162549 -0.45292737 3.02839442
C 7.04897988 -0.36039100 1.66065297
H 6.56305577 -0.49862036 3.75439919
H 11.35559082 -0.28385831 0.25671547
H 8.88243265 -0.60339257 4.55352269
H 6.26361864 0.05677361 -1.58923772
H 11.20188275 0.04036604 -2.50220101
H 9.55380603 0.33726968 -4.35169222
H 7.12891942 0.35572198 -3.88407010
S 0.64328249 -0.43521593 -0.05733024
C 1.78604345 -0.01501313 1.23072914
N 1.20263262 0.48466232 2.31192352
N -0.15688620 0.56986157 2.20506575
C -0.63100401 0.13771038 1.04217125
C 3.21227198 -0.20410352 1.09783614
N 3.79203716 -0.70809979 0.01631868
N 5.15349386 -0.79157732 0.12163428
C 5.63428052 -0.35076719 1.27396930
S 4.35673988 0.21691767 2.37923981
C -3.86271547 -0.31593811 -0.86309616
C -4.81305323 0.13908875 0.07786568
C -4.35649617 0.59113081 1.33657307
C -3.00210500 0.58831289 1.63763693
C -2.04892958 0.13290622 0.70181106
C -2.50984065 -0.31865067 -0.55115801
N -6.19048873 0.14215967 -0.23314772
C -7.05106931 1.12577324 0.32939126
C -6.59250183 2.44090211 0.54125071
C -7.44259644 3.39686469 1.09284322
C -8.75716900 3.06692305 1.43128933
C -9.21857497 1.76606207 1.21600098
C -8.37701273 0.79738767 0.67363700
C -6.72987134 -0.83794554 -1.11218890
C -6.23080810 -2.15542458 -1.10758499
C -6.76525601 -3.10806064 -1.97223814
C -7.80470942 -2.77242384 -2.84310915
C -8.30789189 -1.46922982 -2.84588025
C -7.77720267 -0.50389000 -1.99313119
H -5.43288077 -2.42774985 -0.42248052
H -6.37442579 -4.12206633 -1.95808924
H -9.11334308 -1.19942586 -3.52388218
H -8.16587961 0.51042631 -2.00789650
H -5.57609571 2.70879089 0.26675230
H -7.07896334 4.40896397 1.24953911
H -9.41641850 3.81714483 1.85792680
H -10.23858551 1.50064128 1.48126363
H -8.73878736 -0.21518421 0.51888359
H -5.07367181 0.93152929 2.07799376
H -2.66406325 0.93021919 2.61182737
H -1.79251005 -0.66486975 -1.29244895
H -4.19178977 -0.65425115 -1.84122332
H 10.79071981 -0.53653101 2.93993703
H -8.21974405 -3.52007888 -3.51259478
*
$new_job
# 
!wB97X-D3 def2-TZVP def2/J RIJCOSX Grid5 FinalGrid6 TightSCF
%pal 
 nprocs 24
end
%elprop
   dipole     true
   quadrupole true
end
%tddft
  Mode sTDDFT
  nroots 2
  Ethresh 10.0
  maxcore 5000
end
* xyz 0 1 
C 7.82598602 0.21868174 -3.06185801
C 7.33458237 0.05200950 -1.76962067
C 8.24294407 -0.12651165 -0.70889214
C 9.63563313 -0.11886160 -1.00222754
C 10.13328672 0.04185261 -2.30442462
C 9.20619481 0.20952641 -3.32990404
C 8.12359195 -0.29872246 0.73082178
C 9.45823343 -0.36694806 1.23022625
N 10.34635818 -0.27474689 0.17492637
C 9.76206037 -0.48522481 2.59441630
C 8.69295704 -0.51997825 3.48722219
C 7.37162549 -0.45292737 3.02839442
C 7.04897988 -0.36039100 1.66065297
H 6.56305577 -0.49862036 3.75439919
H 11.35559082 -0.28385831 0.25671547
H 8.88243265 -0.60339257 4.55352269
H 6.26361864 0.05677361 -1.58923772
H 11.20188275 0.04036604 -2.50220101
H 9.55380603 0.33726968 -4.35169222
H 7.12891942 0.35572198 -3.88407010
S 0.64328249 -0.43521593 -0.05733024
C 1.78604345 -0.01501313 1.23072914
N 1.20263262 0.48466232 2.31192352
N -0.15688620 0.56986157 2.20506575
C -0.63100401 0.13771038 1.04217125
C 3.21227198 -0.20410352 1.09783614
N 3.79203716 -0.70809979 0.01631868
N 5.15349386 -0.79157732 0.12163428
C 5.63428052 -0.35076719 1.27396930
S 4.35673988 0.21691767 2.37923981
C -3.86271547 -0.31593811 -0.86309616
C -4.81305323 0.13908875 0.07786568
C -4.35649617 0.59113081 1.33657307
C -3.00210500 0.58831289 1.63763693
C -2.04892958 0.13290622 0.70181106
C -2.50984065 -0.31865067 -0.55115801
N -6.19048873 0.14215967 -0.23314772
C -7.05106931 1.12577324 0.32939126
C -6.59250183 2.44090211 0.54125071
C -7.44259644 3.39686469 1.09284322
C -8.75716900 3.06692305 1.43128933
C -9.21857497 1.76606207 1.21600098
C -8.37701273 0.79738767 0.67363700
C -6.72987134 -0.83794554 -1.11218890
C -6.23080810 -2.15542458 -1.10758499
C -6.76525601 -3.10806064 -1.97223814
C -7.80470942 -2.77242384 -2.84310915
C -8.30789189 -1.46922982 -2.84588025
C -7.77720267 -0.50389000 -1.99313119
H -5.43288077 -2.42774985 -0.42248052
H -6.37442579 -4.12206633 -1.95808924
H -9.11334308 -1.19942586 -3.52388218
H -8.16587961 0.51042631 -2.00789650
H -5.57609571 2.70879089 0.26675230
H -7.07896334 4.40896397 1.24953911
H -9.41641850 3.81714483 1.85792680
H -10.23858551 1.50064128 1.48126363
H -8.73878736 -0.21518421 0.51888359
H -5.07367181 0.93152929 2.07799376
H -2.66406325 0.93021919 2.61182737
H -1.79251005 -0.66486975 -1.29244895
H -4.19178977 -0.65425115 -1.84122332
H 10.79071981 -0.53653101 2.93993703
H -8.21974405 -3.52007888 -3.51259478
*
