# 
!wB97X-D3 def2-TZVP def2/J RIJCOSX Grid5 FinalGrid6 TightSCF
%pal 
 nprocs 24
end
%tddft
  Mode sTDDFT
  nroots 2
  Ethresh 10.0
  maxcore 5000
  triplets true
end
* xyz 0 1 
C -7.82932415 0.83718857 -2.03829915
C -6.69354891 0.37325550 -1.37834401
C -6.75328183 0.14647850 0.00899279
C -7.96627278 0.43736232 0.69455317
C -9.11419868 0.89625704 0.03064684
C -9.02826564 1.08510189 -1.34693378
C -5.80030792 -0.28350529 1.01935299
C -6.47833665 -0.19126768 2.26817200
N -7.78285279 0.21588827 2.04867263
C -5.85109202 -0.45731035 3.49524540
C -4.50199356 -0.80608937 3.45918455
C -3.81392666 -0.91770681 2.24304327
C -4.44060317 -0.69152686 1.00371714
H -2.76922382 -1.21877052 2.25350657
H -8.47469472 0.37807396 2.77001942
H -3.97447400 -1.00664991 4.38775299
H -5.77517209 0.20959369 -1.93449455
H -10.03223419 1.10620560 0.57309000
H -9.89681732 1.44128347 -1.89448341
H -7.78963376 1.01415377 -3.10958874
N 0.36334809 -0.70536523 -2.34717899
C -0.81116465 -1.24520817 -2.85722869
C -0.71757150 -1.75300894 -4.14244733
S 0.90476113 -1.55360009 -4.75169190
C 1.36124128 -0.78581241 -3.21125135
C -2.00813361 -1.23673625 -2.03392651
S -1.98188261 -0.54554924 -0.40271045
C -3.69298851 -0.92928617 -0.23743529
C -4.12762687 -1.55491108 -1.39289261
N -3.19103402 -1.72037133 -2.38755039
H -1.51145566 -2.21289600 -4.71560206
H -5.13321049 -1.94462584 -1.53504500
C 3.18457331 0.30256617 -1.82251349
C 2.70459792 -0.30930862 -2.96530308
S 3.97324773 -0.46143550 -4.17110641
C 5.13140247 0.30455334 -3.11020090
C 4.56795479 0.65489435 -1.90321821
C 5.32315461 1.32459468 -0.78439680
C 5.40501767 0.44182953 0.46991455
C 6.09060649 1.13020420 1.65403100
C 7.53593849 1.57244823 1.39288375
C 8.47167180 0.45631244 0.91384716
C 8.59171014 -0.70142647 1.89519710
H 2.56162268 0.49363878 -0.95566975
H 7.63754254 -1.20738843 2.02250747
H 9.31393317 -1.43336056 1.54070552
H 8.91715633 -0.35146321 2.87244635
H 6.33135385 1.57642433 -1.12585095
H 4.83376498 2.27122889 -0.52367745
H 4.39237669 0.15084412 0.76798166
H 5.93059747 -0.48568216 0.22458141
H 5.50641302 2.00961908 1.94629315
H 6.07026929 0.44967116 2.51112302
H 8.12734062 0.07912886 -0.05425569
H 9.46374080 0.88586507 0.73964215
H 7.54139891 2.37709106 0.65015658
H 7.93632517 2.00497838 2.31575851
H -6.39113625 -0.37845738 4.43445028
H 6.15939740 0.46218461 -3.41117247
*
$new_job
# 
!wB97X-D3 def2-TZVP def2/J RIJCOSX Grid5 FinalGrid6 TightSCF
%pal 
 nprocs 24
end
%elprop
   dipole     true
   quadrupole true
end
%tddft
  Mode sTDDFT
  nroots 2
  Ethresh 10.0
  maxcore 5000
end
* xyz 0 1 
C -7.82932415 0.83718857 -2.03829915
C -6.69354891 0.37325550 -1.37834401
C -6.75328183 0.14647850 0.00899279
C -7.96627278 0.43736232 0.69455317
C -9.11419868 0.89625704 0.03064684
C -9.02826564 1.08510189 -1.34693378
C -5.80030792 -0.28350529 1.01935299
C -6.47833665 -0.19126768 2.26817200
N -7.78285279 0.21588827 2.04867263
C -5.85109202 -0.45731035 3.49524540
C -4.50199356 -0.80608937 3.45918455
C -3.81392666 -0.91770681 2.24304327
C -4.44060317 -0.69152686 1.00371714
H -2.76922382 -1.21877052 2.25350657
H -8.47469472 0.37807396 2.77001942
H -3.97447400 -1.00664991 4.38775299
H -5.77517209 0.20959369 -1.93449455
H -10.03223419 1.10620560 0.57309000
H -9.89681732 1.44128347 -1.89448341
H -7.78963376 1.01415377 -3.10958874
N 0.36334809 -0.70536523 -2.34717899
C -0.81116465 -1.24520817 -2.85722869
C -0.71757150 -1.75300894 -4.14244733
S 0.90476113 -1.55360009 -4.75169190
C 1.36124128 -0.78581241 -3.21125135
C -2.00813361 -1.23673625 -2.03392651
S -1.98188261 -0.54554924 -0.40271045
C -3.69298851 -0.92928617 -0.23743529
C -4.12762687 -1.55491108 -1.39289261
N -3.19103402 -1.72037133 -2.38755039
H -1.51145566 -2.21289600 -4.71560206
H -5.13321049 -1.94462584 -1.53504500
C 3.18457331 0.30256617 -1.82251349
C 2.70459792 -0.30930862 -2.96530308
S 3.97324773 -0.46143550 -4.17110641
C 5.13140247 0.30455334 -3.11020090
C 4.56795479 0.65489435 -1.90321821
C 5.32315461 1.32459468 -0.78439680
C 5.40501767 0.44182953 0.46991455
C 6.09060649 1.13020420 1.65403100
C 7.53593849 1.57244823 1.39288375
C 8.47167180 0.45631244 0.91384716
C 8.59171014 -0.70142647 1.89519710
H 2.56162268 0.49363878 -0.95566975
H 7.63754254 -1.20738843 2.02250747
H 9.31393317 -1.43336056 1.54070552
H 8.91715633 -0.35146321 2.87244635
H 6.33135385 1.57642433 -1.12585095
H 4.83376498 2.27122889 -0.52367745
H 4.39237669 0.15084412 0.76798166
H 5.93059747 -0.48568216 0.22458141
H 5.50641302 2.00961908 1.94629315
H 6.07026929 0.44967116 2.51112302
H 8.12734062 0.07912886 -0.05425569
H 9.46374080 0.88586507 0.73964215
H 7.54139891 2.37709106 0.65015658
H 7.93632517 2.00497838 2.31575851
H -6.39113625 -0.37845738 4.43445028
H 6.15939740 0.46218461 -3.41117247
*
