# 
!wB97X-D3 def2-TZVP def2/J RIJCOSX Grid5 FinalGrid6 TightSCF
%pal 
 nprocs 24
end
%tddft
  Mode sTDDFT
  nroots 2
  Ethresh 10.0
  maxcore 5000
  triplets true
end
* xyz 0 1 
C -4.38811383 2.94317004 -0.38621388
C -3.74053311 1.75046978 -0.07505780
C -4.50978121 0.62324392 0.27161004
C -5.92756458 0.74803899 0.27904379
C -6.58242704 1.95080054 -0.02728748
C -5.79014330 3.04675071 -0.35898529
C -4.21363542 -0.75739195 0.62118228
C -5.47644289 -1.39648312 0.80209280
N -6.48721034 -0.47357021 0.60987966
C -5.61026505 -2.75960250 1.10396363
C -4.44084055 -3.50929791 1.21195204
C -3.18642248 -2.91190717 1.03792680
C -3.03371821 -1.53951064 0.76065005
H -2.29519242 -3.52597245 1.14581053
H -7.47876112 -0.67096049 0.66696061
H -4.49830348 -4.57026457 1.43719771
H -2.65602318 1.69777131 -0.09793816
H -7.66675656 2.02060560 -0.01075939
H -6.26141849 3.99524414 -0.60262729
H -3.79882493 3.81612044 -0.65331685
S 3.11202223 0.91396271 0.38832473
C 4.50008087 -0.09357734 -0.08409304
N 4.16246743 -1.35023322 -0.34775207
N 2.83125117 -1.60446097 -0.20244393
C 2.12918770 -0.54272253 0.17597458
C 0.70161107 -0.55680402 0.39651089
N 0.00582531 0.50619010 0.77979099
N -1.32956813 0.25443748 0.92452430
C -1.67683407 -0.99471127 0.65092860
S -0.28770989 -2.00629154 0.18276314
N 6.98393146 -1.74225586 -0.89160244
C 6.95560812 -0.44103316 -0.55849945
C 8.29275985 0.06298428 -0.64174547
N 9.09293863 -0.94999355 -1.02357431
O 8.27825106 -2.02071358 -1.16572063
C 8.58613115 1.42496236 -0.34396630
C 7.52768001 2.22564769 0.02489113
C 6.19460025 1.73140339 0.10995913
C 5.86317617 0.41122348 -0.17126566
H 5.40801908 2.42179092 0.40822959
H 7.70089196 3.27199937 0.26191127
H -6.58823478 -3.21338916 1.23723271
H 9.59829157 1.81432995 -0.40496156
*
$new_job
# 
!wB97X-D3 def2-TZVP def2/J RIJCOSX Grid5 FinalGrid6 TightSCF
%pal 
 nprocs 24
end
%elprop
   dipole     true
   quadrupole true
end
%tddft
  Mode sTDDFT
  nroots 2
  Ethresh 10.0
  maxcore 5000
end
* xyz 0 1 
C -4.38811383 2.94317004 -0.38621388
C -3.74053311 1.75046978 -0.07505780
C -4.50978121 0.62324392 0.27161004
C -5.92756458 0.74803899 0.27904379
C -6.58242704 1.95080054 -0.02728748
C -5.79014330 3.04675071 -0.35898529
C -4.21363542 -0.75739195 0.62118228
C -5.47644289 -1.39648312 0.80209280
N -6.48721034 -0.47357021 0.60987966
C -5.61026505 -2.75960250 1.10396363
C -4.44084055 -3.50929791 1.21195204
C -3.18642248 -2.91190717 1.03792680
C -3.03371821 -1.53951064 0.76065005
H -2.29519242 -3.52597245 1.14581053
H -7.47876112 -0.67096049 0.66696061
H -4.49830348 -4.57026457 1.43719771
H -2.65602318 1.69777131 -0.09793816
H -7.66675656 2.02060560 -0.01075939
H -6.26141849 3.99524414 -0.60262729
H -3.79882493 3.81612044 -0.65331685
S 3.11202223 0.91396271 0.38832473
C 4.50008087 -0.09357734 -0.08409304
N 4.16246743 -1.35023322 -0.34775207
N 2.83125117 -1.60446097 -0.20244393
C 2.12918770 -0.54272253 0.17597458
C 0.70161107 -0.55680402 0.39651089
N 0.00582531 0.50619010 0.77979099
N -1.32956813 0.25443748 0.92452430
C -1.67683407 -0.99471127 0.65092860
S -0.28770989 -2.00629154 0.18276314
N 6.98393146 -1.74225586 -0.89160244
C 6.95560812 -0.44103316 -0.55849945
C 8.29275985 0.06298428 -0.64174547
N 9.09293863 -0.94999355 -1.02357431
O 8.27825106 -2.02071358 -1.16572063
C 8.58613115 1.42496236 -0.34396630
C 7.52768001 2.22564769 0.02489113
C 6.19460025 1.73140339 0.10995913
C 5.86317617 0.41122348 -0.17126566
H 5.40801908 2.42179092 0.40822959
H 7.70089196 3.27199937 0.26191127
H -6.58823478 -3.21338916 1.23723271
H 9.59829157 1.81432995 -0.40496156
*
