# 
!wB97X-D3 def2-TZVP def2/J RIJCOSX Grid5 FinalGrid6 TightSCF
%pal 
 nprocs 24
end
%tddft
  Mode sTDDFT
  nroots 2
  Ethresh 10.0
  maxcore 5000
  triplets true
end
* xyz 0 1 
C -4.71377252 3.24156896 -0.21296990
C -4.56975136 1.86596552 -0.05128289
C -5.60111067 1.01207910 -0.48508188
C -6.77896929 1.59603732 -1.03118323
C -6.92485199 2.98159281 -1.20006956
C -5.87076758 3.79401825 -0.79029113
C -5.82626445 -0.42421374 -0.45828213
C -7.14925789 -0.62558865 -0.94906067
N -7.69094568 0.59412484 -1.31253116
C -7.75649235 -1.88909521 -1.00644527
C -7.01933668 -2.97602985 -0.54134190
C -5.70896404 -2.81165638 -0.07178439
C -5.07725296 -1.55494990 -0.04152195
H -5.14749320 -3.68160791 0.25644650
H -8.62543618 0.73463207 -1.67645648
H -7.45826422 -3.96967492 -0.55584517
H -3.67453785 1.47253459 0.42167869
H -7.83142488 3.40379754 -1.62518293
H -5.94854156 4.87187274 -0.90413287
H -3.91896660 3.90390353 0.11835944
S 1.32144241 -1.92395524 1.65050445
C 0.17275186 -1.13707841 0.54904396
N 0.74777711 -0.30244559 -0.30673857
N 2.10231126 -0.22293232 -0.16123788
C 2.57855071 -0.99703304 0.80823315
C -1.24789511 -1.39548578 0.59793959
N -1.81752372 -2.22551528 1.46114059
N -3.17546458 -2.30857385 1.31529191
C -3.66219538 -1.52576987 0.36330731
S -2.40010791 -0.61559483 -0.49514708
S 10.87958763 2.24836848 -1.45480735
C 9.81149316 1.22295569 -0.46811131
C 10.37432212 0.46050479 0.50317645
S 12.13874495 0.54200594 0.71886178
C 12.45785732 1.76593243 -0.62654140
S 9.30234866 -0.56027587 1.48391430
C 7.80347588 -0.05293641 0.64085950
S 8.05083061 1.13618819 -0.67707659
C 6.57646306 -0.53023624 0.97252825
S 5.07366477 -0.03323074 0.14069186
C 3.98873594 -1.05717718 1.12336441
C 4.57008250 -1.81550977 2.09316520
S 6.31740065 -1.71689238 2.28563236
H 13.14503325 1.33399340 -1.36360027
H 12.94311972 2.65594667 -0.20889146
H -8.76681073 -2.01134227 -1.38658555
H 4.00640579 -2.47342125 2.74786127
*
$new_job
# 
!wB97X-D3 def2-TZVP def2/J RIJCOSX Grid5 FinalGrid6 TightSCF
%pal 
 nprocs 24
end
%elprop
   dipole     true
   quadrupole true
end
%tddft
  Mode sTDDFT
  nroots 2
  Ethresh 10.0
  maxcore 5000
end
* xyz 0 1 
C -4.71377252 3.24156896 -0.21296990
C -4.56975136 1.86596552 -0.05128289
C -5.60111067 1.01207910 -0.48508188
C -6.77896929 1.59603732 -1.03118323
C -6.92485199 2.98159281 -1.20006956
C -5.87076758 3.79401825 -0.79029113
C -5.82626445 -0.42421374 -0.45828213
C -7.14925789 -0.62558865 -0.94906067
N -7.69094568 0.59412484 -1.31253116
C -7.75649235 -1.88909521 -1.00644527
C -7.01933668 -2.97602985 -0.54134190
C -5.70896404 -2.81165638 -0.07178439
C -5.07725296 -1.55494990 -0.04152195
H -5.14749320 -3.68160791 0.25644650
H -8.62543618 0.73463207 -1.67645648
H -7.45826422 -3.96967492 -0.55584517
H -3.67453785 1.47253459 0.42167869
H -7.83142488 3.40379754 -1.62518293
H -5.94854156 4.87187274 -0.90413287
H -3.91896660 3.90390353 0.11835944
S 1.32144241 -1.92395524 1.65050445
C 0.17275186 -1.13707841 0.54904396
N 0.74777711 -0.30244559 -0.30673857
N 2.10231126 -0.22293232 -0.16123788
C 2.57855071 -0.99703304 0.80823315
C -1.24789511 -1.39548578 0.59793959
N -1.81752372 -2.22551528 1.46114059
N -3.17546458 -2.30857385 1.31529191
C -3.66219538 -1.52576987 0.36330731
S -2.40010791 -0.61559483 -0.49514708
S 10.87958763 2.24836848 -1.45480735
C 9.81149316 1.22295569 -0.46811131
C 10.37432212 0.46050479 0.50317645
S 12.13874495 0.54200594 0.71886178
C 12.45785732 1.76593243 -0.62654140
S 9.30234866 -0.56027587 1.48391430
C 7.80347588 -0.05293641 0.64085950
S 8.05083061 1.13618819 -0.67707659
C 6.57646306 -0.53023624 0.97252825
S 5.07366477 -0.03323074 0.14069186
C 3.98873594 -1.05717718 1.12336441
C 4.57008250 -1.81550977 2.09316520
S 6.31740065 -1.71689238 2.28563236
H 13.14503325 1.33399340 -1.36360027
H 12.94311972 2.65594667 -0.20889146
H -8.76681073 -2.01134227 -1.38658555
H 4.00640579 -2.47342125 2.74786127
*
