# 
!wB97X-D3 def2-TZVP def2/J RIJCOSX Grid5 FinalGrid6 TightSCF
%pal 
 nprocs 24
end
%tddft
  Mode sTDDFT
  nroots 2
  Ethresh 10.0
  maxcore 5000
  triplets true
end
* xyz 0 1 
C -5.73669769 2.29621523 -1.86854425
C -5.38360056 1.29917769 -0.96217383
C -6.21407621 0.17106720 -0.82838769
C -7.40821976 0.10960620 -1.60037622
C -7.76149745 1.10860647 -2.52035953
C -6.90376669 2.19890559 -2.64672374
C -6.20143139 -1.01782125 0.00824155
C -7.41046851 -1.71502161 -0.27541950
N -8.10571478 -1.03718884 -1.26136218
C -7.78912755 -2.88567150 0.39991096
C -6.93480798 -3.35129609 1.39798160
C -5.73222809 -2.69232943 1.68869416
C -5.32229169 -1.54006293 0.99300473
H -5.07818401 -3.10100668 2.45509376
H -9.00635593 -1.30978737 -1.63536112
H -7.19725372 -4.24675894 1.95465161
H -4.48672439 1.41052124 -0.35994343
H -8.67528199 1.03831501 -3.10440060
H -7.14567902 2.99281855 -3.34826280
H -5.09940797 3.16943536 -1.97675499
N 0.44649686 0.71310698 2.46199041
C -0.68726932 0.16215616 3.04539187
C -0.61684686 0.01286177 4.42160884
S 0.92002278 0.57836384 5.02206824
C 1.38282632 0.98922942 3.34997318
C -1.82493761 -0.20539430 2.21347163
S -3.31473118 -0.90614099 2.89349592
C -4.00230798 -0.96059439 1.27012962
C -3.06774089 -0.48080404 0.37030439
N -1.86915684 -0.06242037 0.89867291
H -1.38075396 -0.39242923 5.07341290
H -3.21677225 -0.45357118 -0.70678176
C 2.65761315 1.59183331 2.98645037
C 3.62008835 1.90621822 3.88757325
S 5.18847758 2.65768533 3.52376315
C 5.50931211 2.10188855 1.85657929
C 4.55438097 1.79317578 0.94376350
S 2.79453924 1.89371738 1.21495196
S 7.21364044 1.85721824 1.38581898
C 6.85153871 1.31237572 -0.27932497
S 5.10454078 1.18059508 -0.63859850
C 7.81752086 1.01897825 -1.18681767
S 9.56458289 1.14364584 -0.82405463
C 10.11179068 0.70505073 -2.46532211
C 9.15853093 0.39871893 -3.38066230
S 7.45632554 0.46613681 -2.84894899
S 11.87189565 0.62626174 -2.75826486
C 11.98715150 -0.69143515 -3.96242633
C 11.04490266 -0.99411663 -4.86726084
S 9.48353541 -0.14128682 -5.05174576
H 11.19253552 -1.82338677 -5.55664927
H 3.45325711 1.69697697 4.94449356
H -8.71767915 -3.39795328 0.16474519
H 12.90580539 -1.27298580 -3.91130965
*
$new_job
# 
!wB97X-D3 def2-TZVP def2/J RIJCOSX Grid5 FinalGrid6 TightSCF
%pal 
 nprocs 24
end
%elprop
   dipole     true
   quadrupole true
end
%tddft
  Mode sTDDFT
  nroots 2
  Ethresh 10.0
  maxcore 5000
end
* xyz 0 1 
C -5.73669769 2.29621523 -1.86854425
C -5.38360056 1.29917769 -0.96217383
C -6.21407621 0.17106720 -0.82838769
C -7.40821976 0.10960620 -1.60037622
C -7.76149745 1.10860647 -2.52035953
C -6.90376669 2.19890559 -2.64672374
C -6.20143139 -1.01782125 0.00824155
C -7.41046851 -1.71502161 -0.27541950
N -8.10571478 -1.03718884 -1.26136218
C -7.78912755 -2.88567150 0.39991096
C -6.93480798 -3.35129609 1.39798160
C -5.73222809 -2.69232943 1.68869416
C -5.32229169 -1.54006293 0.99300473
H -5.07818401 -3.10100668 2.45509376
H -9.00635593 -1.30978737 -1.63536112
H -7.19725372 -4.24675894 1.95465161
H -4.48672439 1.41052124 -0.35994343
H -8.67528199 1.03831501 -3.10440060
H -7.14567902 2.99281855 -3.34826280
H -5.09940797 3.16943536 -1.97675499
N 0.44649686 0.71310698 2.46199041
C -0.68726932 0.16215616 3.04539187
C -0.61684686 0.01286177 4.42160884
S 0.92002278 0.57836384 5.02206824
C 1.38282632 0.98922942 3.34997318
C -1.82493761 -0.20539430 2.21347163
S -3.31473118 -0.90614099 2.89349592
C -4.00230798 -0.96059439 1.27012962
C -3.06774089 -0.48080404 0.37030439
N -1.86915684 -0.06242037 0.89867291
H -1.38075396 -0.39242923 5.07341290
H -3.21677225 -0.45357118 -0.70678176
C 2.65761315 1.59183331 2.98645037
C 3.62008835 1.90621822 3.88757325
S 5.18847758 2.65768533 3.52376315
C 5.50931211 2.10188855 1.85657929
C 4.55438097 1.79317578 0.94376350
S 2.79453924 1.89371738 1.21495196
S 7.21364044 1.85721824 1.38581898
C 6.85153871 1.31237572 -0.27932497
S 5.10454078 1.18059508 -0.63859850
C 7.81752086 1.01897825 -1.18681767
S 9.56458289 1.14364584 -0.82405463
C 10.11179068 0.70505073 -2.46532211
C 9.15853093 0.39871893 -3.38066230
S 7.45632554 0.46613681 -2.84894899
S 11.87189565 0.62626174 -2.75826486
C 11.98715150 -0.69143515 -3.96242633
C 11.04490266 -0.99411663 -4.86726084
S 9.48353541 -0.14128682 -5.05174576
H 11.19253552 -1.82338677 -5.55664927
H 3.45325711 1.69697697 4.94449356
H -8.71767915 -3.39795328 0.16474519
H 12.90580539 -1.27298580 -3.91130965
*
