# 
!wB97X-D3 def2-TZVP def2/J RIJCOSX Grid5 FinalGrid6 TightSCF
%pal 
 nprocs 24
end
%tddft
  Mode sTDDFT
  nroots 2
  Ethresh 10.0
  maxcore 5000
  triplets true
end
* xyz 0 1 
C -2.65109512 2.73787022 -0.49963197
C -2.49816940 1.35542098 -0.42552759
C -3.61280520 0.55271322 -0.11459228
C -4.86833748 1.19708808 0.07720356
C -5.02553832 2.58973344 0.00807298
C -3.89576506 3.35197745 -0.27748763
C -3.85539032 -0.87698478 0.02479749
C -5.25519083 -1.01468406 0.26020946
N -5.83753818 0.23819828 0.30868151
C -5.89639178 -2.25561655 0.39291009
C -5.10657518 -3.39745598 0.27551215
C -3.72663892 -3.29774784 0.06313411
C -3.06297957 -2.05846405 -0.04560234
H -3.13843699 -4.20973543 0.00725971
H -6.82325986 0.42022668 0.45185197
H -5.56182640 -4.37993557 0.36280019
H -1.52475216 0.91731185 -0.61835561
H -5.99583732 3.05349164 0.16436243
H -3.97833669 4.43366885 -0.33996709
H -1.78985602 3.35629004 -0.73748806
O 2.70144827 -0.49604042 0.08763370
C 1.38810046 -0.23797774 0.26376611
C 1.22838953 1.06722923 0.71888576
C 2.52880548 1.61236356 0.81781098
C 3.40878680 0.61271635 0.41837096
C 0.43062115 -1.27312276 -0.03332523
C 0.56255938 -2.57228019 -0.50800813
C -0.75076163 -3.09175942 -0.60251549
C -1.60981682 -2.07814515 -0.19300443
O -0.88016445 -0.99883585 0.15180518
H -1.03054811 -4.07633425 -0.94852645
H 1.48623011 -3.07609127 -0.75282996
H 2.79413056 2.60892362 1.13995892
H 0.29218330 1.55576372 0.94826032
N 7.59126753 2.84820157 0.89667574
C 7.09896383 1.65230143 0.52343671
C 5.67351529 1.70842706 0.63848967
N 5.34306861 2.93527060 1.07759886
O 6.51386248 3.59902027 1.22435106
C 4.85238286 0.57399568 0.30813963
C 5.53439360 -0.56185063 -0.12392745
C 6.95218454 -0.60817991 -0.23510221
C 7.75477042 0.46842094 0.07686311
H 7.40686855 -1.53337220 -0.58021012
H 4.96357294 -1.44835003 -0.38683049
H -6.96604534 -2.32073414 0.57013802
H 8.83575149 0.41707342 -0.01334787
*
$new_job
# 
!wB97X-D3 def2-TZVP def2/J RIJCOSX Grid5 FinalGrid6 TightSCF
%pal 
 nprocs 24
end
%elprop
   dipole     true
   quadrupole true
end
%tddft
  Mode sTDDFT
  nroots 2
  Ethresh 10.0
  maxcore 5000
end
* xyz 0 1 
C -2.65109512 2.73787022 -0.49963197
C -2.49816940 1.35542098 -0.42552759
C -3.61280520 0.55271322 -0.11459228
C -4.86833748 1.19708808 0.07720356
C -5.02553832 2.58973344 0.00807298
C -3.89576506 3.35197745 -0.27748763
C -3.85539032 -0.87698478 0.02479749
C -5.25519083 -1.01468406 0.26020946
N -5.83753818 0.23819828 0.30868151
C -5.89639178 -2.25561655 0.39291009
C -5.10657518 -3.39745598 0.27551215
C -3.72663892 -3.29774784 0.06313411
C -3.06297957 -2.05846405 -0.04560234
H -3.13843699 -4.20973543 0.00725971
H -6.82325986 0.42022668 0.45185197
H -5.56182640 -4.37993557 0.36280019
H -1.52475216 0.91731185 -0.61835561
H -5.99583732 3.05349164 0.16436243
H -3.97833669 4.43366885 -0.33996709
H -1.78985602 3.35629004 -0.73748806
O 2.70144827 -0.49604042 0.08763370
C 1.38810046 -0.23797774 0.26376611
C 1.22838953 1.06722923 0.71888576
C 2.52880548 1.61236356 0.81781098
C 3.40878680 0.61271635 0.41837096
C 0.43062115 -1.27312276 -0.03332523
C 0.56255938 -2.57228019 -0.50800813
C -0.75076163 -3.09175942 -0.60251549
C -1.60981682 -2.07814515 -0.19300443
O -0.88016445 -0.99883585 0.15180518
H -1.03054811 -4.07633425 -0.94852645
H 1.48623011 -3.07609127 -0.75282996
H 2.79413056 2.60892362 1.13995892
H 0.29218330 1.55576372 0.94826032
N 7.59126753 2.84820157 0.89667574
C 7.09896383 1.65230143 0.52343671
C 5.67351529 1.70842706 0.63848967
N 5.34306861 2.93527060 1.07759886
O 6.51386248 3.59902027 1.22435106
C 4.85238286 0.57399568 0.30813963
C 5.53439360 -0.56185063 -0.12392745
C 6.95218454 -0.60817991 -0.23510221
C 7.75477042 0.46842094 0.07686311
H 7.40686855 -1.53337220 -0.58021012
H 4.96357294 -1.44835003 -0.38683049
H -6.96604534 -2.32073414 0.57013802
H 8.83575149 0.41707342 -0.01334787
*
