# 
!wB97X-D3 def2-TZVP def2/J RIJCOSX Grid5 FinalGrid6 TightSCF
%pal 
 nprocs 24
end
%tddft
  Mode sTDDFT
  nroots 2
  Ethresh 10.0
  maxcore 5000
  triplets true
end
* xyz 0 1 
C -7.36318180 0.84169727 2.30825520
C -6.49361775 0.50373549 1.27451284
C -7.00652666 0.34027570 -0.02650808
C -8.40053407 0.53875259 -0.23381413
C -9.28013984 0.87250984 0.80735692
C -8.73940645 1.01984410 2.08215140
C -6.43450278 0.02763013 -1.32723387
C -7.51819412 0.07359853 -2.25415428
N -8.68733642 0.36394420 -1.57638920
C -7.35835050 -0.12892506 -3.63282143
C -6.06738763 -0.36959159 -4.09859612
C -4.98266067 -0.41898967 -3.21454399
C -5.12969966 -0.24381418 -1.82472058
H -3.99195811 -0.62479256 -3.61346199
H -9.60050460 0.46653254 -2.00172316
H -5.89646197 -0.52478467 -5.16002344
H -5.43549621 0.36554154 1.47632999
H -10.34158559 1.01495501 0.62275925
H -9.38948055 1.27810750 2.91396001
H -6.97226447 0.96766532 3.31418600
S 0.94682906 -0.05954168 -0.79983769
C 2.10323920 -0.34929796 0.51782259
N 1.51879849 -0.72023307 1.65607065
N 0.16105934 -0.79963780 1.57129139
C -0.31860802 -0.49285065 0.37293008
C -1.72292358 -0.49910034 0.02462447
N -2.70129532 -0.82189451 0.86025198
N -3.94294728 -0.74967661 0.29340010
C -3.94229055 -0.36804119 -0.97399496
S -2.29629604 -0.06865033 -1.59603317
C 9.40324629 1.01408247 -1.09260666
C 8.24493840 0.59017750 -0.37120981
C 7.09009848 0.53160726 -1.15090759
S 7.44665372 0.99679011 -2.80980775
C 9.12836241 1.26201524 -2.41620724
C 5.84190484 0.21710747 -0.52674484
C 5.82657222 -0.15648415 0.81513728
C 7.12536316 -0.37370108 1.58998350
O 8.26765712 0.33034327 0.95588301
C 4.51630837 -0.39282867 1.30432586
C 3.52347989 -0.19301940 0.35173627
S 4.22564632 0.29883138 -1.19248621
C 7.49049029 -1.87720981 1.60394495
H 10.38675898 1.12419079 -0.65096232
H 4.29240921 -0.70163950 2.31942099
H 6.70934112 -2.45383269 2.09336927
H 7.60345088 -2.24874074 0.58823524
H 8.42536586 -2.04059958 2.13471886
C 7.04141624 0.18301783 3.02004193
H 6.79385613 1.24134119 3.00635429
H 6.27725367 -0.33913749 3.59032857
H 7.99295370 0.06106333 3.53142223
H -8.20676045 -0.08864215 -4.31011986
H 9.83695769 1.57969954 -3.17009676
*
$new_job
# 
!wB97X-D3 def2-TZVP def2/J RIJCOSX Grid5 FinalGrid6 TightSCF
%pal 
 nprocs 24
end
%elprop
   dipole     true
   quadrupole true
end
%tddft
  Mode sTDDFT
  nroots 2
  Ethresh 10.0
  maxcore 5000
end
* xyz 0 1 
C -7.36318180 0.84169727 2.30825520
C -6.49361775 0.50373549 1.27451284
C -7.00652666 0.34027570 -0.02650808
C -8.40053407 0.53875259 -0.23381413
C -9.28013984 0.87250984 0.80735692
C -8.73940645 1.01984410 2.08215140
C -6.43450278 0.02763013 -1.32723387
C -7.51819412 0.07359853 -2.25415428
N -8.68733642 0.36394420 -1.57638920
C -7.35835050 -0.12892506 -3.63282143
C -6.06738763 -0.36959159 -4.09859612
C -4.98266067 -0.41898967 -3.21454399
C -5.12969966 -0.24381418 -1.82472058
H -3.99195811 -0.62479256 -3.61346199
H -9.60050460 0.46653254 -2.00172316
H -5.89646197 -0.52478467 -5.16002344
H -5.43549621 0.36554154 1.47632999
H -10.34158559 1.01495501 0.62275925
H -9.38948055 1.27810750 2.91396001
H -6.97226447 0.96766532 3.31418600
S 0.94682906 -0.05954168 -0.79983769
C 2.10323920 -0.34929796 0.51782259
N 1.51879849 -0.72023307 1.65607065
N 0.16105934 -0.79963780 1.57129139
C -0.31860802 -0.49285065 0.37293008
C -1.72292358 -0.49910034 0.02462447
N -2.70129532 -0.82189451 0.86025198
N -3.94294728 -0.74967661 0.29340010
C -3.94229055 -0.36804119 -0.97399496
S -2.29629604 -0.06865033 -1.59603317
C 9.40324629 1.01408247 -1.09260666
C 8.24493840 0.59017750 -0.37120981
C 7.09009848 0.53160726 -1.15090759
S 7.44665372 0.99679011 -2.80980775
C 9.12836241 1.26201524 -2.41620724
C 5.84190484 0.21710747 -0.52674484
C 5.82657222 -0.15648415 0.81513728
C 7.12536316 -0.37370108 1.58998350
O 8.26765712 0.33034327 0.95588301
C 4.51630837 -0.39282867 1.30432586
C 3.52347989 -0.19301940 0.35173627
S 4.22564632 0.29883138 -1.19248621
C 7.49049029 -1.87720981 1.60394495
H 10.38675898 1.12419079 -0.65096232
H 4.29240921 -0.70163950 2.31942099
H 6.70934112 -2.45383269 2.09336927
H 7.60345088 -2.24874074 0.58823524
H 8.42536586 -2.04059958 2.13471886
C 7.04141624 0.18301783 3.02004193
H 6.79385613 1.24134119 3.00635429
H 6.27725367 -0.33913749 3.59032857
H 7.99295370 0.06106333 3.53142223
H -8.20676045 -0.08864215 -4.31011986
H 9.83695769 1.57969954 -3.17009676
*
