# 
!wB97X-D3 def2-TZVP def2/J RIJCOSX Grid5 FinalGrid6 TightSCF
%pal 
 nprocs 24
end
%tddft
  Mode sTDDFT
  nroots 2
  Ethresh 10.0
  maxcore 5000
  triplets true
end
* xyz 0 1 
C -4.36223762 -2.57067776 1.21410517
C -3.64695599 -1.53267635 0.62288817
C -4.34857165 -0.50763252 -0.04020383
C -5.77017764 -0.57020946 -0.06921872
C -6.49312564 -1.61890597 0.51977252
C -5.76653756 -2.61877289 1.16095355
C -3.97362675 0.71581320 -0.73198229
C -5.19719826 1.33592024 -1.12482364
N -6.25818741 0.54114096 -0.73387081
C -5.25361221 2.57336192 -1.78258802
C -4.04521890 3.21727848 -2.04033036
C -2.82775315 2.63589688 -1.66556371
C -2.75230018 1.38210354 -1.02832665
H -1.90394262 3.16081809 -1.89806762
H -7.23660157 0.75752535 -0.87977567
H -4.04281757 4.18103571 -2.54116564
H -2.56215273 -1.52143955 0.67310508
H -7.57878916 -1.64496324 0.48029601
H -6.29162223 -3.44712025 1.62914486
H -3.82527502 -3.36457089 1.72598238
S 3.24730029 -1.14214506 0.21816546
C 4.67246030 -0.10627423 0.45897637
N 4.39509938 1.18902560 0.36644770
N 3.08282188 1.45260895 0.10768575
C 2.33618933 0.36021752 -0.00199700
C 0.91742471 0.37585852 -0.27304010
N 0.17853063 -0.72058216 -0.38667420
N -1.13790685 -0.46062858 -0.64423127
C -1.42823004 0.82976197 -0.72582412
S -0.00194288 1.87014501 -0.49010669
N 9.29508043 0.69510002 1.31842565
C 8.41889314 -0.31938751 1.18175339
C 7.13349260 0.24322143 0.91886541
N 7.26074368 1.58057754 0.90252055
O 8.56953386 1.82171414 1.14542734
C 6.00532019 -0.62504306 0.72956104
C 6.28407722 -1.98669579 0.82424419
N 7.52190014 -2.52696181 1.07742706
C 8.57371623 -1.73807135 1.25455023
H 5.47046826 -2.70791020 0.69053648
H -6.20343922 3.01575544 -2.06932402
H 9.54497052 -2.20401187 1.45448001
*
$new_job
# 
!wB97X-D3 def2-TZVP def2/J RIJCOSX Grid5 FinalGrid6 TightSCF
%pal 
 nprocs 24
end
%elprop
   dipole     true
   quadrupole true
end
%tddft
  Mode sTDDFT
  nroots 2
  Ethresh 10.0
  maxcore 5000
end
* xyz 0 1 
C -4.36223762 -2.57067776 1.21410517
C -3.64695599 -1.53267635 0.62288817
C -4.34857165 -0.50763252 -0.04020383
C -5.77017764 -0.57020946 -0.06921872
C -6.49312564 -1.61890597 0.51977252
C -5.76653756 -2.61877289 1.16095355
C -3.97362675 0.71581320 -0.73198229
C -5.19719826 1.33592024 -1.12482364
N -6.25818741 0.54114096 -0.73387081
C -5.25361221 2.57336192 -1.78258802
C -4.04521890 3.21727848 -2.04033036
C -2.82775315 2.63589688 -1.66556371
C -2.75230018 1.38210354 -1.02832665
H -1.90394262 3.16081809 -1.89806762
H -7.23660157 0.75752535 -0.87977567
H -4.04281757 4.18103571 -2.54116564
H -2.56215273 -1.52143955 0.67310508
H -7.57878916 -1.64496324 0.48029601
H -6.29162223 -3.44712025 1.62914486
H -3.82527502 -3.36457089 1.72598238
S 3.24730029 -1.14214506 0.21816546
C 4.67246030 -0.10627423 0.45897637
N 4.39509938 1.18902560 0.36644770
N 3.08282188 1.45260895 0.10768575
C 2.33618933 0.36021752 -0.00199700
C 0.91742471 0.37585852 -0.27304010
N 0.17853063 -0.72058216 -0.38667420
N -1.13790685 -0.46062858 -0.64423127
C -1.42823004 0.82976197 -0.72582412
S -0.00194288 1.87014501 -0.49010669
N 9.29508043 0.69510002 1.31842565
C 8.41889314 -0.31938751 1.18175339
C 7.13349260 0.24322143 0.91886541
N 7.26074368 1.58057754 0.90252055
O 8.56953386 1.82171414 1.14542734
C 6.00532019 -0.62504306 0.72956104
C 6.28407722 -1.98669579 0.82424419
N 7.52190014 -2.52696181 1.07742706
C 8.57371623 -1.73807135 1.25455023
H 5.47046826 -2.70791020 0.69053648
H -6.20343922 3.01575544 -2.06932402
H 9.54497052 -2.20401187 1.45448001
*
