# 
!wB97X-D3 def2-TZVP def2/J RIJCOSX Grid5 FinalGrid6 TightSCF
%pal 
 nprocs 24
end
%tddft
  Mode sTDDFT
  nroots 2
  Ethresh 10.0
  maxcore 5000
  triplets true
end
* xyz 0 1 
C 6.30674824 3.45277038 -0.13432880
C 5.53020877 2.34279778 0.08991085
C 6.11323044 1.03481868 0.05968723
C 7.52650272 0.90496892 -0.20098855
C 8.29911785 2.08985588 -0.42971430
C 7.70029574 3.32488602 -0.39707099
N 5.33293079 -0.05293424 0.27480168
C 5.92325560 -1.26989745 0.22892424
C 7.34689060 -1.39488255 -0.00253404
N 8.12936848 -0.30859848 -0.21937042
C 7.94605727 -2.69508130 0.00631587
C 7.17362180 -3.80696083 0.23840545
C 5.77664121 -3.69205915 0.45504150
C 5.13293759 -2.46473229 0.44611417
H 5.19714978 -4.59883663 0.61097760
H 7.62672335 -4.79504912 0.24715237
H 9.01450395 -2.78520221 -0.17007573
H 8.28885620 4.22215832 -0.57136019
H 4.46572597 2.44050561 0.28869215
H 5.86194994 4.44447944 -0.11361909
S 0.56538600 0.63457974 -1.06249479
C 0.35153481 -0.76036399 -0.00662244
C -0.97980143 -0.91914725 0.31932546
C -1.84526855 0.06519182 -0.26708791
C -1.14555617 0.97575740 -1.04473095
C 1.47543988 -1.56932752 0.41298994
C 2.80427104 -1.41300019 0.07335984
C 3.67246115 -2.39413077 0.65813275
C 2.97761149 -3.30132603 1.43923449
S 1.27073936 -2.95350468 1.48471975
H 3.14789224 -0.62880581 -0.59227223
H -1.33696463 -1.71867681 0.96210097
H 3.39995820 -4.12057071 2.00752572
H -1.56114089 1.81108726 -1.59345295
C -9.32394250 -0.66568884 1.01807206
C -8.08697706 -0.11005664 0.56827103
C -6.96377995 -0.74485569 1.09164967
S -7.44405297 -2.04556013 2.17386106
C -9.13671051 -1.71044755 1.89177692
C -5.66167295 -0.34174398 0.64581946
C -5.54181320 0.76035545 -0.19017727
C -6.74938600 1.63273532 -0.52607686
O -8.02508636 0.90275913 -0.33289547
C -4.19609621 1.00772257 -0.58336304
C -3.28553843 0.09891742 -0.06698248
S -4.11091359 -1.09963245 0.93884284
C -6.74811668 2.07558626 -1.99850028
H -10.29892125 -0.30539407 0.71107576
H -3.90351859 1.83120523 -1.22644603
H -7.64349353 2.64971963 -2.22364294
H -5.88143098 2.69649708 -2.21190576
H -6.72062987 1.21273079 -2.65900648
C -6.79687886 2.86069448 0.41605360
H -5.90176849 3.46672448 0.29769701
H -6.85620845 2.53898573 1.45304577
H -7.66461722 3.47923541 0.19904684
H 9.36358882 1.99479441 -0.62907218
H -9.91161397 -2.28605328 2.38106807
*
$new_job
# 
!wB97X-D3 def2-TZVP def2/J RIJCOSX Grid5 FinalGrid6 TightSCF
%pal 
 nprocs 24
end
%elprop
   dipole     true
   quadrupole true
end
%tddft
  Mode sTDDFT
  nroots 2
  Ethresh 10.0
  maxcore 5000
end
* xyz 0 1 
C 6.30674824 3.45277038 -0.13432880
C 5.53020877 2.34279778 0.08991085
C 6.11323044 1.03481868 0.05968723
C 7.52650272 0.90496892 -0.20098855
C 8.29911785 2.08985588 -0.42971430
C 7.70029574 3.32488602 -0.39707099
N 5.33293079 -0.05293424 0.27480168
C 5.92325560 -1.26989745 0.22892424
C 7.34689060 -1.39488255 -0.00253404
N 8.12936848 -0.30859848 -0.21937042
C 7.94605727 -2.69508130 0.00631587
C 7.17362180 -3.80696083 0.23840545
C 5.77664121 -3.69205915 0.45504150
C 5.13293759 -2.46473229 0.44611417
H 5.19714978 -4.59883663 0.61097760
H 7.62672335 -4.79504912 0.24715237
H 9.01450395 -2.78520221 -0.17007573
H 8.28885620 4.22215832 -0.57136019
H 4.46572597 2.44050561 0.28869215
H 5.86194994 4.44447944 -0.11361909
S 0.56538600 0.63457974 -1.06249479
C 0.35153481 -0.76036399 -0.00662244
C -0.97980143 -0.91914725 0.31932546
C -1.84526855 0.06519182 -0.26708791
C -1.14555617 0.97575740 -1.04473095
C 1.47543988 -1.56932752 0.41298994
C 2.80427104 -1.41300019 0.07335984
C 3.67246115 -2.39413077 0.65813275
C 2.97761149 -3.30132603 1.43923449
S 1.27073936 -2.95350468 1.48471975
H 3.14789224 -0.62880581 -0.59227223
H -1.33696463 -1.71867681 0.96210097
H 3.39995820 -4.12057071 2.00752572
H -1.56114089 1.81108726 -1.59345295
C -9.32394250 -0.66568884 1.01807206
C -8.08697706 -0.11005664 0.56827103
C -6.96377995 -0.74485569 1.09164967
S -7.44405297 -2.04556013 2.17386106
C -9.13671051 -1.71044755 1.89177692
C -5.66167295 -0.34174398 0.64581946
C -5.54181320 0.76035545 -0.19017727
C -6.74938600 1.63273532 -0.52607686
O -8.02508636 0.90275913 -0.33289547
C -4.19609621 1.00772257 -0.58336304
C -3.28553843 0.09891742 -0.06698248
S -4.11091359 -1.09963245 0.93884284
C -6.74811668 2.07558626 -1.99850028
H -10.29892125 -0.30539407 0.71107576
H -3.90351859 1.83120523 -1.22644603
H -7.64349353 2.64971963 -2.22364294
H -5.88143098 2.69649708 -2.21190576
H -6.72062987 1.21273079 -2.65900648
C -6.79687886 2.86069448 0.41605360
H -5.90176849 3.46672448 0.29769701
H -6.85620845 2.53898573 1.45304577
H -7.66461722 3.47923541 0.19904684
H 9.36358882 1.99479441 -0.62907218
H -9.91161397 -2.28605328 2.38106807
*
