# 
!wB97X-D3 def2-TZVP def2/J RIJCOSX Grid5 FinalGrid6 TightSCF
%pal 
 nprocs 24
end
%tddft
  Mode sTDDFT
  nroots 2
  Ethresh 10.0
  maxcore 5000
  triplets true
end
* xyz 0 1 
C 4.67701271 -2.84167901 0.86166989
C 4.04870123 -1.63384150 0.56837233
C 4.83352278 -0.47876934 0.39098378
C 6.24550148 -0.59225051 0.52941731
C 6.88171639 -1.80926275 0.81786930
C 6.07491041 -2.93271387 0.98095824
C 4.55541049 0.92199260 0.11186663
C 5.82015534 1.58158601 0.11558313
N 6.81875171 0.65449952 0.35017286
C 5.96550525 2.96411629 -0.07143224
C 4.80268207 3.71020132 -0.25198335
C 3.54615517 3.09202062 -0.25861961
C 3.38482638 1.70225810 -0.09815561
H 2.66248664 3.70587435 -0.41730220
H 7.80740901 0.86306541 0.41570522
H 4.86763801 4.78536147 -0.39293739
H 2.96751106 -1.59033019 0.47478230
H 7.96247721 -1.86978092 0.91494918
H 6.53163988 -3.89308075 1.20554218
H 4.07568956 -3.73640185 0.99851364
S -2.75126586 -0.79922389 -0.54501004
C -1.79870569 0.63317988 -0.13378678
N -2.53822680 1.66859921 0.24442276
N -3.87933074 1.40845361 0.23559997
C -4.18380163 0.17326817 -0.14830509
C -0.35559531 0.66699817 -0.20353284
N 0.39290936 -0.35979298 -0.58393728
N 1.73488379 -0.08710158 -0.56789521
C 2.03173331 1.14052674 -0.17235089
S 0.58499137 2.10700334 0.21520436
C -6.67324272 0.47143063 0.08884809
C -5.55083198 -0.33860292 -0.23750114
C -5.81900584 -1.66794667 -0.65431585
C -7.12344304 -2.18091637 -0.74761711
C -8.20747357 -1.35158283 -0.41719208
C -7.98972355 -0.02456055 0.00177130
O -9.46260789 -1.84277732 -0.50619886
O -4.77367385 -2.46563044 -0.97220603
O -6.47981333 1.73974268 0.49008069
H -7.32170055 2.17320575 0.67829485
H -5.07559280 -3.34320082 -1.24097559
H -10.10921825 -1.17193031 -0.25190806
H -8.82975757 0.61655622 0.25734078
H 6.94511543 3.43372144 -0.06438012
H -7.29622509 -3.20208417 -1.06970542
*
$new_job
# 
!wB97X-D3 def2-TZVP def2/J RIJCOSX Grid5 FinalGrid6 TightSCF
%pal 
 nprocs 24
end
%elprop
   dipole     true
   quadrupole true
end
%tddft
  Mode sTDDFT
  nroots 2
  Ethresh 10.0
  maxcore 5000
end
* xyz 0 1 
C 4.67701271 -2.84167901 0.86166989
C 4.04870123 -1.63384150 0.56837233
C 4.83352278 -0.47876934 0.39098378
C 6.24550148 -0.59225051 0.52941731
C 6.88171639 -1.80926275 0.81786930
C 6.07491041 -2.93271387 0.98095824
C 4.55541049 0.92199260 0.11186663
C 5.82015534 1.58158601 0.11558313
N 6.81875171 0.65449952 0.35017286
C 5.96550525 2.96411629 -0.07143224
C 4.80268207 3.71020132 -0.25198335
C 3.54615517 3.09202062 -0.25861961
C 3.38482638 1.70225810 -0.09815561
H 2.66248664 3.70587435 -0.41730220
H 7.80740901 0.86306541 0.41570522
H 4.86763801 4.78536147 -0.39293739
H 2.96751106 -1.59033019 0.47478230
H 7.96247721 -1.86978092 0.91494918
H 6.53163988 -3.89308075 1.20554218
H 4.07568956 -3.73640185 0.99851364
S -2.75126586 -0.79922389 -0.54501004
C -1.79870569 0.63317988 -0.13378678
N -2.53822680 1.66859921 0.24442276
N -3.87933074 1.40845361 0.23559997
C -4.18380163 0.17326817 -0.14830509
C -0.35559531 0.66699817 -0.20353284
N 0.39290936 -0.35979298 -0.58393728
N 1.73488379 -0.08710158 -0.56789521
C 2.03173331 1.14052674 -0.17235089
S 0.58499137 2.10700334 0.21520436
C -6.67324272 0.47143063 0.08884809
C -5.55083198 -0.33860292 -0.23750114
C -5.81900584 -1.66794667 -0.65431585
C -7.12344304 -2.18091637 -0.74761711
C -8.20747357 -1.35158283 -0.41719208
C -7.98972355 -0.02456055 0.00177130
O -9.46260789 -1.84277732 -0.50619886
O -4.77367385 -2.46563044 -0.97220603
O -6.47981333 1.73974268 0.49008069
H -7.32170055 2.17320575 0.67829485
H -5.07559280 -3.34320082 -1.24097559
H -10.10921825 -1.17193031 -0.25190806
H -8.82975757 0.61655622 0.25734078
H 6.94511543 3.43372144 -0.06438012
H -7.29622509 -3.20208417 -1.06970542
*
