# 
!wB97X-D3 def2-TZVP def2/J RIJCOSX Grid5 FinalGrid6 TightSCF
%pal 
 nprocs 24
end
%tddft
  Mode sTDDFT
  nroots 2
  Ethresh 10.0
  maxcore 5000
  triplets true
end
* xyz 0 1 
C -4.29017033 0.54618119 2.59845148
C -3.57498049 0.17306097 1.46249196
C -4.27514029 -0.13376968 0.28153672
C -5.69800001 -0.09631846 0.30768526
C -6.42102019 0.28385744 1.44857780
C -5.69442755 0.61217974 2.59091773
C -3.89718596 -0.58013161 -1.04983657
C -5.11629794 -0.82949131 -1.74339668
N -6.18228630 -0.50801799 -0.92167686
C -5.15939914 -1.34554574 -3.04768641
C -3.94104627 -1.62905383 -3.66146621
C -2.72584120 -1.37306477 -3.01084462
C -2.66810737 -0.82593854 -1.71529028
H -1.79553298 -1.57313786 -3.53578738
H -7.16006856 -0.60689589 -1.16556190
H -3.92826710 -2.03977271 -4.66730830
H -2.49174128 0.10796994 1.50673015
H -7.50744352 0.31055657 1.44335573
H -6.22037606 0.90943337 3.49425798
H -3.75377044 0.78564485 3.51259412
N 3.10047963 0.83717036 0.41423441
C 1.79600201 1.30366964 0.34270578
C 1.59393397 2.56735291 0.87841877
S 3.08973312 3.21207562 1.50194914
C 3.91010488 1.70794173 0.99123454
C 0.76128945 0.47597714 -0.26348765
S -0.93154289 1.01816379 -0.39024304
C -1.34189783 -0.51508449 -1.15816929
C -0.19424592 -1.27738736 -1.27557193
N 0.96027729 -0.73189649 -0.76440305
H 0.66015770 3.11365957 0.92493851
H -0.16967249 -2.27396424 -1.71229673
C 7.75986943 1.78816377 1.87154547
S 6.30773740 2.73035817 1.98546232
C 5.32192169 1.51172537 1.21056639
C 6.11784970 0.39933710 0.87482522
C 7.50358367 0.56473255 1.25431853
N 5.67261680 -0.74462638 0.25271098
C 6.59558367 -1.66692992 0.03206433
C 7.97496590 -1.50477545 0.40862598
N 8.44091528 -0.42183714 1.00727489
H 6.27878986 -2.59349719 -0.46216383
H 8.68780953 -2.31148173 0.19488926
H -6.10418051 -1.52672715 -3.55219713
H 8.70902165 2.15033418 2.24562442
*
$new_job
# 
!wB97X-D3 def2-TZVP def2/J RIJCOSX Grid5 FinalGrid6 TightSCF
%pal 
 nprocs 24
end
%elprop
   dipole     true
   quadrupole true
end
%tddft
  Mode sTDDFT
  nroots 2
  Ethresh 10.0
  maxcore 5000
end
* xyz 0 1 
C -4.29017033 0.54618119 2.59845148
C -3.57498049 0.17306097 1.46249196
C -4.27514029 -0.13376968 0.28153672
C -5.69800001 -0.09631846 0.30768526
C -6.42102019 0.28385744 1.44857780
C -5.69442755 0.61217974 2.59091773
C -3.89718596 -0.58013161 -1.04983657
C -5.11629794 -0.82949131 -1.74339668
N -6.18228630 -0.50801799 -0.92167686
C -5.15939914 -1.34554574 -3.04768641
C -3.94104627 -1.62905383 -3.66146621
C -2.72584120 -1.37306477 -3.01084462
C -2.66810737 -0.82593854 -1.71529028
H -1.79553298 -1.57313786 -3.53578738
H -7.16006856 -0.60689589 -1.16556190
H -3.92826710 -2.03977271 -4.66730830
H -2.49174128 0.10796994 1.50673015
H -7.50744352 0.31055657 1.44335573
H -6.22037606 0.90943337 3.49425798
H -3.75377044 0.78564485 3.51259412
N 3.10047963 0.83717036 0.41423441
C 1.79600201 1.30366964 0.34270578
C 1.59393397 2.56735291 0.87841877
S 3.08973312 3.21207562 1.50194914
C 3.91010488 1.70794173 0.99123454
C 0.76128945 0.47597714 -0.26348765
S -0.93154289 1.01816379 -0.39024304
C -1.34189783 -0.51508449 -1.15816929
C -0.19424592 -1.27738736 -1.27557193
N 0.96027729 -0.73189649 -0.76440305
H 0.66015770 3.11365957 0.92493851
H -0.16967249 -2.27396424 -1.71229673
C 7.75986943 1.78816377 1.87154547
S 6.30773740 2.73035817 1.98546232
C 5.32192169 1.51172537 1.21056639
C 6.11784970 0.39933710 0.87482522
C 7.50358367 0.56473255 1.25431853
N 5.67261680 -0.74462638 0.25271098
C 6.59558367 -1.66692992 0.03206433
C 7.97496590 -1.50477545 0.40862598
N 8.44091528 -0.42183714 1.00727489
H 6.27878986 -2.59349719 -0.46216383
H 8.68780953 -2.31148173 0.19488926
H -6.10418051 -1.52672715 -3.55219713
H 8.70902165 2.15033418 2.24562442
*
