# 
!wB97X-D3 def2-TZVP def2/J RIJCOSX Grid5 FinalGrid6 TightSCF
%pal 
 nprocs 24
end
%tddft
  Mode sTDDFT
  nroots 2
  Ethresh 10.0
  maxcore 5000
  triplets true
end
* xyz 0 1 
C -4.00518847 -0.25060702 -1.39631101
C -3.02743723 -0.94669900 -0.69030986
C -3.40758341 -1.73900280 0.40925480
C -4.79197281 -1.83707720 0.72655542
C -5.77902270 -1.13237591 0.02024544
C -5.36310908 -0.33141299 -1.04003981
C -2.70784430 -2.60966737 1.33992547
C -3.71533520 -3.22319287 2.14014871
N -4.95297998 -2.72486478 1.77544092
C -3.42977302 -4.19194604 3.11399827
C -2.09742045 -4.56624288 3.27474429
C -1.08267361 -3.96585170 2.51703332
C -1.35290251 -2.96819974 1.56230845
H -0.04941171 -4.25515765 2.68554124
H -5.83908973 -3.00742880 2.17605913
H -1.83582625 -5.32331394 4.00852903
H -1.99054371 -0.88477141 -1.00801227
H -6.82936707 -1.21855408 0.28502788
H -6.09933121 0.22747348 -1.61128341
H -3.71568743 0.36316130 -2.24468484
S 2.04281100 1.82819750 -0.36956571
C 2.50784602 0.12341277 -0.35114888
N 3.74557874 -0.09416816 -0.79070116
N 4.39321891 1.04177862 -1.16267607
C 3.66637517 2.14271503 -1.01459405
C 1.61296206 -0.92067090 0.10244598
N 1.91522005 -2.21146148 0.12148069
N 0.90340711 -2.99728934 0.59427224
C -0.19535790 -2.32961141 0.91689689
S -0.02517076 -0.57499329 0.68445987
N 6.33707655 2.86390808 -2.09735554
C 5.42514899 3.78628335 -1.86082415
C 5.76697695 5.18657198 -2.14858593
N 6.97410894 5.44297420 -2.63018107
S 7.84038649 3.78445146 -2.76567070
C 4.76763241 6.18487200 -1.88791950
C 3.55311367 5.78490273 -1.38719756
N 3.21531648 4.47703305 -1.11158126
C 4.09314848 3.49873218 -1.32896572
H 2.77573532 6.52560044 -1.18030363
H -4.21963404 -4.64142295 3.70918341
H 4.97639925 7.23231555 -2.08553934
*
$new_job
# 
!wB97X-D3 def2-TZVP def2/J RIJCOSX Grid5 FinalGrid6 TightSCF
%pal 
 nprocs 24
end
%elprop
   dipole     true
   quadrupole true
end
%tddft
  Mode sTDDFT
  nroots 2
  Ethresh 10.0
  maxcore 5000
end
* xyz 0 1 
C -4.00518847 -0.25060702 -1.39631101
C -3.02743723 -0.94669900 -0.69030986
C -3.40758341 -1.73900280 0.40925480
C -4.79197281 -1.83707720 0.72655542
C -5.77902270 -1.13237591 0.02024544
C -5.36310908 -0.33141299 -1.04003981
C -2.70784430 -2.60966737 1.33992547
C -3.71533520 -3.22319287 2.14014871
N -4.95297998 -2.72486478 1.77544092
C -3.42977302 -4.19194604 3.11399827
C -2.09742045 -4.56624288 3.27474429
C -1.08267361 -3.96585170 2.51703332
C -1.35290251 -2.96819974 1.56230845
H -0.04941171 -4.25515765 2.68554124
H -5.83908973 -3.00742880 2.17605913
H -1.83582625 -5.32331394 4.00852903
H -1.99054371 -0.88477141 -1.00801227
H -6.82936707 -1.21855408 0.28502788
H -6.09933121 0.22747348 -1.61128341
H -3.71568743 0.36316130 -2.24468484
S 2.04281100 1.82819750 -0.36956571
C 2.50784602 0.12341277 -0.35114888
N 3.74557874 -0.09416816 -0.79070116
N 4.39321891 1.04177862 -1.16267607
C 3.66637517 2.14271503 -1.01459405
C 1.61296206 -0.92067090 0.10244598
N 1.91522005 -2.21146148 0.12148069
N 0.90340711 -2.99728934 0.59427224
C -0.19535790 -2.32961141 0.91689689
S -0.02517076 -0.57499329 0.68445987
N 6.33707655 2.86390808 -2.09735554
C 5.42514899 3.78628335 -1.86082415
C 5.76697695 5.18657198 -2.14858593
N 6.97410894 5.44297420 -2.63018107
S 7.84038649 3.78445146 -2.76567070
C 4.76763241 6.18487200 -1.88791950
C 3.55311367 5.78490273 -1.38719756
N 3.21531648 4.47703305 -1.11158126
C 4.09314848 3.49873218 -1.32896572
H 2.77573532 6.52560044 -1.18030363
H -4.21963404 -4.64142295 3.70918341
H 4.97639925 7.23231555 -2.08553934
*
