# 
!wB97X-D3 def2-TZVP def2/J RIJCOSX Grid5 FinalGrid6 TightSCF
%pal 
 nprocs 24
end
%tddft
  Mode sTDDFT
  nroots 2
  Ethresh 10.0
  maxcore 5000
  triplets true
end
* xyz 0 1 
C -6.92803581 0.46914466 -3.69643866
C -6.45553428 0.20533464 -2.41362994
C -7.31241190 -0.40985607 -1.48074325
C -8.63148247 -0.74814046 -1.89451580
C -9.11238802 -0.47703834 -3.18466644
C -8.24002929 0.13803925 -4.07877885
C -7.18343115 -0.85648706 -0.10234805
C -8.43227302 -1.45957425 0.23386960
N -9.28913107 -1.36826572 -0.84653021
C -8.68545399 -2.05830413 1.47665022
C -7.64795758 -2.06685499 2.40666404
C -6.41016040 -1.48525814 2.10648914
C -6.14827645 -0.85682497 0.87338632
H -5.62934517 -1.49680940 2.86363251
H -10.23470402 -1.72940037 -0.87595206
H -7.79820500 -2.52638054 3.37929327
H -5.43972540 0.47634535 -2.14152537
H -10.12564468 -0.74238502 -3.47418627
H -8.57660281 0.36374496 -5.08716980
H -6.27103323 0.94487171 -4.41927605
S -0.13375600 -0.17855521 2.03404561
C 1.22918489 0.85077575 1.54169181
N 0.89060953 1.77047473 0.64681279
N -0.42513166 1.73590838 0.29033053
C -1.11493680 0.78776119 0.90980059
C -2.52693666 0.53630044 0.71123427
N -3.30169038 1.23215975 -0.10984492
N -4.59802076 0.80240580 -0.12442807
C -4.84032626 -0.22623297 0.67345371
S -3.38816339 -0.75475110 1.56530912
C 2.58112141 0.73980051 2.06272722
C 2.94701087 -0.17447137 2.99546526
S 4.56685823 -0.36673921 3.69504278
C 5.63260544 0.23014714 2.39178303
C 5.28127398 1.15057793 1.45923803
S 3.69783480 1.96603621 1.35572722
S 7.25545608 -0.50097670 2.26176581
C 7.75146900 0.44349172 0.82520587
S 6.48384129 1.54069548 0.20154865
C 8.97970096 0.33413343 0.25758722
S 10.24631925 -0.76301037 0.88229692
C 11.44752645 -0.37467497 -0.37940870
C 11.09890830 0.54764907 -1.31115799
S 9.47551741 1.27694987 -1.17871881
S 13.04275777 -1.17132710 -0.27753078
C 14.12802711 0.09039423 -0.93323848
C 13.78339069 1.00195855 -1.85432420
S 12.16921946 1.13988930 -2.61238783
H 14.50590819 1.74405153 -2.18894070
H 2.20306944 -0.87277006 3.37922861
H -9.64951515 -2.50657003 1.69969194
H 15.13249223 0.08651696 -0.51403089
*
$new_job
# 
!wB97X-D3 def2-TZVP def2/J RIJCOSX Grid5 FinalGrid6 TightSCF
%pal 
 nprocs 24
end
%elprop
   dipole     true
   quadrupole true
end
%tddft
  Mode sTDDFT
  nroots 2
  Ethresh 10.0
  maxcore 5000
end
* xyz 0 1 
C -6.92803581 0.46914466 -3.69643866
C -6.45553428 0.20533464 -2.41362994
C -7.31241190 -0.40985607 -1.48074325
C -8.63148247 -0.74814046 -1.89451580
C -9.11238802 -0.47703834 -3.18466644
C -8.24002929 0.13803925 -4.07877885
C -7.18343115 -0.85648706 -0.10234805
C -8.43227302 -1.45957425 0.23386960
N -9.28913107 -1.36826572 -0.84653021
C -8.68545399 -2.05830413 1.47665022
C -7.64795758 -2.06685499 2.40666404
C -6.41016040 -1.48525814 2.10648914
C -6.14827645 -0.85682497 0.87338632
H -5.62934517 -1.49680940 2.86363251
H -10.23470402 -1.72940037 -0.87595206
H -7.79820500 -2.52638054 3.37929327
H -5.43972540 0.47634535 -2.14152537
H -10.12564468 -0.74238502 -3.47418627
H -8.57660281 0.36374496 -5.08716980
H -6.27103323 0.94487171 -4.41927605
S -0.13375600 -0.17855521 2.03404561
C 1.22918489 0.85077575 1.54169181
N 0.89060953 1.77047473 0.64681279
N -0.42513166 1.73590838 0.29033053
C -1.11493680 0.78776119 0.90980059
C -2.52693666 0.53630044 0.71123427
N -3.30169038 1.23215975 -0.10984492
N -4.59802076 0.80240580 -0.12442807
C -4.84032626 -0.22623297 0.67345371
S -3.38816339 -0.75475110 1.56530912
C 2.58112141 0.73980051 2.06272722
C 2.94701087 -0.17447137 2.99546526
S 4.56685823 -0.36673921 3.69504278
C 5.63260544 0.23014714 2.39178303
C 5.28127398 1.15057793 1.45923803
S 3.69783480 1.96603621 1.35572722
S 7.25545608 -0.50097670 2.26176581
C 7.75146900 0.44349172 0.82520587
S 6.48384129 1.54069548 0.20154865
C 8.97970096 0.33413343 0.25758722
S 10.24631925 -0.76301037 0.88229692
C 11.44752645 -0.37467497 -0.37940870
C 11.09890830 0.54764907 -1.31115799
S 9.47551741 1.27694987 -1.17871881
S 13.04275777 -1.17132710 -0.27753078
C 14.12802711 0.09039423 -0.93323848
C 13.78339069 1.00195855 -1.85432420
S 12.16921946 1.13988930 -2.61238783
H 14.50590819 1.74405153 -2.18894070
H 2.20306944 -0.87277006 3.37922861
H -9.64951515 -2.50657003 1.69969194
H 15.13249223 0.08651696 -0.51403089
*
