# 
!wB97X-D3 def2-TZVP def2/J RIJCOSX Grid5 FinalGrid6 TightSCF
%pal 
 nprocs 24
end
%tddft
  Mode sTDDFT
  nroots 2
  Ethresh 10.0
  maxcore 5000
  triplets true
end
* xyz 0 1 
C 5.47712665 1.62010480 -1.95502321
C 4.49961971 1.09406537 -1.11338684
C 4.85257629 0.07774871 -0.20654446
C 6.19236471 -0.40268199 -0.21030482
C 7.18075549 0.13170438 -1.05092520
C 6.80339507 1.15465194 -1.91799366
C 4.13030765 -0.71972340 0.77121489
C 5.06491362 -1.66715322 1.27803204
N 6.30089896 -1.44229267 0.69735508
C 4.71152946 -2.66563092 2.19895402
C 3.37814129 -2.71856060 2.60176657
C 2.44029867 -1.79011894 2.12913000
C 2.78945369 -0.76061110 1.23575628
H 1.41529749 -1.84614506 2.48755535
H 7.13672201 -1.98714101 0.87015294
H 3.05935593 -3.48475539 3.30322925
H 3.47863753 1.45874056 -1.17774994
H 8.19961766 -0.24600325 -1.03287610
H 7.54165953 1.59167044 -2.58506977
H 5.21098289 2.40515970 -2.65742398
N -2.61431485 1.06585081 -0.04775055
C -1.60368354 2.00157893 0.03870165
C -1.99929295 3.31452265 -0.18789868
S -3.70167715 3.38109125 -0.52078973
C -3.79218929 1.60632088 -0.33555209
C -0.25575324 1.55697951 0.34781337
S 0.08988011 -0.16084701 0.60822535
C 1.78469153 0.24308317 0.86306277
C 1.94244655 1.61422637 0.75571683
N 0.80879457 2.33855605 0.46677211
H -1.36087979 4.18815860 -0.16531709
H 2.88274112 2.13556059 0.92084855
C -5.29243782 -3.26548594 -0.09441443
N -6.41646476 -2.64028970 -0.37187670
C -6.36398374 -1.25698633 -0.51119025
C -5.10042271 -0.54583792 -0.35088516
N -3.95129036 -1.25895555 -0.06024814
C -4.04601997 -2.56669100 0.06254660
C -7.54734685 -0.58092136 -0.80590504
C -7.53099539 0.83461215 -0.95591490
C -6.26023698 1.56824354 -0.79644536
C -5.03302321 0.86403114 -0.48943394
N -6.30510037 2.88524916 -0.94728093
S -8.08733230 3.31717405 -1.32909693
N -8.62039025 1.54904494 -1.23796550
H -3.12937370 -3.12471037 0.29256586
H -5.32803242 -4.35700615 0.01650981
H 5.44400374 -3.37704798 2.56950732
H -8.47617031 -1.13233279 -0.92045325
*
$new_job
# 
!wB97X-D3 def2-TZVP def2/J RIJCOSX Grid5 FinalGrid6 TightSCF
%pal 
 nprocs 24
end
%elprop
   dipole     true
   quadrupole true
end
%tddft
  Mode sTDDFT
  nroots 2
  Ethresh 10.0
  maxcore 5000
end
* xyz 0 1 
C 5.47712665 1.62010480 -1.95502321
C 4.49961971 1.09406537 -1.11338684
C 4.85257629 0.07774871 -0.20654446
C 6.19236471 -0.40268199 -0.21030482
C 7.18075549 0.13170438 -1.05092520
C 6.80339507 1.15465194 -1.91799366
C 4.13030765 -0.71972340 0.77121489
C 5.06491362 -1.66715322 1.27803204
N 6.30089896 -1.44229267 0.69735508
C 4.71152946 -2.66563092 2.19895402
C 3.37814129 -2.71856060 2.60176657
C 2.44029867 -1.79011894 2.12913000
C 2.78945369 -0.76061110 1.23575628
H 1.41529749 -1.84614506 2.48755535
H 7.13672201 -1.98714101 0.87015294
H 3.05935593 -3.48475539 3.30322925
H 3.47863753 1.45874056 -1.17774994
H 8.19961766 -0.24600325 -1.03287610
H 7.54165953 1.59167044 -2.58506977
H 5.21098289 2.40515970 -2.65742398
N -2.61431485 1.06585081 -0.04775055
C -1.60368354 2.00157893 0.03870165
C -1.99929295 3.31452265 -0.18789868
S -3.70167715 3.38109125 -0.52078973
C -3.79218929 1.60632088 -0.33555209
C -0.25575324 1.55697951 0.34781337
S 0.08988011 -0.16084701 0.60822535
C 1.78469153 0.24308317 0.86306277
C 1.94244655 1.61422637 0.75571683
N 0.80879457 2.33855605 0.46677211
H -1.36087979 4.18815860 -0.16531709
H 2.88274112 2.13556059 0.92084855
C -5.29243782 -3.26548594 -0.09441443
N -6.41646476 -2.64028970 -0.37187670
C -6.36398374 -1.25698633 -0.51119025
C -5.10042271 -0.54583792 -0.35088516
N -3.95129036 -1.25895555 -0.06024814
C -4.04601997 -2.56669100 0.06254660
C -7.54734685 -0.58092136 -0.80590504
C -7.53099539 0.83461215 -0.95591490
C -6.26023698 1.56824354 -0.79644536
C -5.03302321 0.86403114 -0.48943394
N -6.30510037 2.88524916 -0.94728093
S -8.08733230 3.31717405 -1.32909693
N -8.62039025 1.54904494 -1.23796550
H -3.12937370 -3.12471037 0.29256586
H -5.32803242 -4.35700615 0.01650981
H 5.44400374 -3.37704798 2.56950732
H -8.47617031 -1.13233279 -0.92045325
*
